<?xml version="1.0" encoding="UTF-8"?>

<!-- generated on Wed Sep 23 02:22:35 2015 by SUMO duarouter Version 0.22.0
<?xml version="1.0" encoding="UTF-8"?>

<configuration xmlns:xsi="http://www.w3.org/2001/XMLSchema-instance" xsi:noNamespaceSchemaLocation="http://sumo.dlr.de/xsd/duarouterConfiguration.xsd">

    <input>
        <net-file value="/Users/ctomas/RTGAR/python/testgar/src/../data/__case_2.net.xml"/>
        <additional-files value="/Users/ctomas/RTGAR/python/testgar/src/../data/case_2.vtyp.rou.xml"/>
        <trip-files value="/Users/ctomas/RTGAR/python/testgar/src/../data/__trips.trip.xml"/>
    </input>

    <output>
        <output-file value="/Users/ctomas/RTGAR/python/testgar/src/../data/__routes.rou.xml"/>
    </output>

    <processing>
        <ignore-errors value="true"/>
        <routing-algorithm value="astar"/>
    </processing>

    <report>
        <verbose value="true"/>
    </report>

</configuration>
-->

<routes xmlns:xsi="http://www.w3.org/2001/XMLSchema-instance" xsi:noNamespaceSchemaLocation="http://sumo.dlr.de/xsd/routes_file.xsd">
    <vType id="pass" length="4.00" minGap="5.00" maxSpeed="120.00" speedFactor="1.10" speedDev="0.10" vClass="passenger"/>
    <vehicle id="0" type="pass" depart="54009.00" departLane="free" departSpeed="max" fromTaz="TAZ1" toTaz="TAZ2">
        <route edges="03to04 04to05 05to08"/>
    </vehicle>
    <vehicle id="100" type="pass" depart="54009.00" departLane="free" departSpeed="max" fromTaz="TAZ2" toTaz="TAZ1">
        <route edges="06to05 05to04 04to01"/>
    </vehicle>
    <vehicle id="1" type="pass" depart="54027.00" departLane="free" departSpeed="max" fromTaz="TAZ1" toTaz="TAZ2">
        <route edges="03to04 04to05 05to07"/>
    </vehicle>
    <vehicle id="101" type="pass" depart="54027.00" departLane="free" departSpeed="max" fromTaz="TAZ2" toTaz="TAZ1">
        <route edges="06to05 05to04 04to02"/>
    </vehicle>
    <vehicle id="102" type="pass" depart="54045.00" departLane="free" departSpeed="max" fromTaz="TAZ2" toTaz="TAZ1">
        <route edges="06to05 05to04 04to02"/>
    </vehicle>
    <vehicle id="2" type="pass" depart="54045.00" departLane="free" departSpeed="max" fromTaz="TAZ1" toTaz="TAZ2">
        <route edges="02to04 04to05 05to08"/>
    </vehicle>
    <vehicle id="103" type="pass" depart="54063.00" departLane="free" departSpeed="max" fromTaz="TAZ2" toTaz="TAZ1">
        <route edges="07to05 05to04 04to01"/>
    </vehicle>
    <vehicle id="3" type="pass" depart="54063.00" departLane="free" departSpeed="max" fromTaz="TAZ1" toTaz="TAZ2">
        <route edges="03to04 04to05 05to08"/>
    </vehicle>
    <vehicle id="104" type="pass" depart="54081.00" departLane="free" departSpeed="max" fromTaz="TAZ2" toTaz="TAZ1">
        <route edges="07to05 05to04 04to02"/>
    </vehicle>
    <vehicle id="4" type="pass" depart="54081.00" departLane="free" departSpeed="max" fromTaz="TAZ1" toTaz="TAZ2">
        <route edges="03to04 04to05 05to08"/>
    </vehicle>
    <vehicle id="105" type="pass" depart="54099.00" departLane="free" departSpeed="max" fromTaz="TAZ2" toTaz="TAZ1">
        <route edges="07to05 05to04 04to02"/>
    </vehicle>
    <vehicle id="5" type="pass" depart="54099.00" departLane="free" departSpeed="max" fromTaz="TAZ1" toTaz="TAZ2">
        <route edges="03to04 04to05 05to07"/>
    </vehicle>
    <vehicle id="106" type="pass" depart="54117.00" departLane="free" departSpeed="max" fromTaz="TAZ2" toTaz="TAZ1">
        <route edges="07to05 05to04 04to02"/>
    </vehicle>
    <vehicle id="6" type="pass" depart="54117.00" departLane="free" departSpeed="max" fromTaz="TAZ1" toTaz="TAZ2">
        <route edges="02to04 04to05 05to07"/>
    </vehicle>
    <vehicle id="107" type="pass" depart="54135.00" departLane="free" departSpeed="max" fromTaz="TAZ2" toTaz="TAZ1">
        <route edges="07to05 05to04 04to02"/>
    </vehicle>
    <vehicle id="7" type="pass" depart="54135.00" departLane="free" departSpeed="max" fromTaz="TAZ1" toTaz="TAZ2">
        <route edges="02to04 04to05 05to07"/>
    </vehicle>
    <vehicle id="108" type="pass" depart="54153.00" departLane="free" departSpeed="max" fromTaz="TAZ2" toTaz="TAZ1">
        <route edges="06to05 05to04 04to02"/>
    </vehicle>
    <vehicle id="8" type="pass" depart="54153.00" departLane="free" departSpeed="max" fromTaz="TAZ1" toTaz="TAZ2">
        <route edges="02to04 04to05 05to07"/>
    </vehicle>
    <vehicle id="109" type="pass" depart="54171.00" departLane="free" departSpeed="max" fromTaz="TAZ2" toTaz="TAZ1">
        <route edges="07to05 05to04 04to01"/>
    </vehicle>
    <vehicle id="9" type="pass" depart="54171.00" departLane="free" departSpeed="max" fromTaz="TAZ1" toTaz="TAZ2">
        <route edges="02to04 04to05 05to07"/>
    </vehicle>
    <vehicle id="10" type="pass" depart="54189.00" departLane="free" departSpeed="max" fromTaz="TAZ1" toTaz="TAZ2">
        <route edges="03to04 04to05 05to07"/>
    </vehicle>
    <vehicle id="110" type="pass" depart="54189.00" departLane="free" departSpeed="max" fromTaz="TAZ2" toTaz="TAZ1">
        <route edges="07to05 05to04 04to02"/>
    </vehicle>
    <vehicle id="11" type="pass" depart="54207.00" departLane="free" departSpeed="max" fromTaz="TAZ1" toTaz="TAZ2">
        <route edges="02to04 04to05 05to07"/>
    </vehicle>
    <vehicle id="111" type="pass" depart="54207.00" departLane="free" departSpeed="max" fromTaz="TAZ2" toTaz="TAZ1">
        <route edges="07to05 05to04 04to02"/>
    </vehicle>
    <vehicle id="112" type="pass" depart="54225.00" departLane="free" departSpeed="max" fromTaz="TAZ2" toTaz="TAZ1">
        <route edges="07to05 05to04 04to02"/>
    </vehicle>
    <vehicle id="12" type="pass" depart="54225.00" departLane="free" departSpeed="max" fromTaz="TAZ1" toTaz="TAZ2">
        <route edges="02to04 04to05 05to08"/>
    </vehicle>
    <vehicle id="113" type="pass" depart="54243.00" departLane="free" departSpeed="max" fromTaz="TAZ2" toTaz="TAZ1">
        <route edges="07to05 05to04 04to02"/>
    </vehicle>
    <vehicle id="13" type="pass" depart="54243.00" departLane="free" departSpeed="max" fromTaz="TAZ1" toTaz="TAZ2">
        <route edges="02to04 04to05 05to07"/>
    </vehicle>
    <vehicle id="114" type="pass" depart="54261.00" departLane="free" departSpeed="max" fromTaz="TAZ2" toTaz="TAZ1">
        <route edges="07to05 05to04 04to02"/>
    </vehicle>
    <vehicle id="14" type="pass" depart="54261.00" departLane="free" departSpeed="max" fromTaz="TAZ1" toTaz="TAZ2">
        <route edges="02to04 04to05 05to07"/>
    </vehicle>
    <vehicle id="115" type="pass" depart="54279.00" departLane="free" departSpeed="max" fromTaz="TAZ2" toTaz="TAZ1">
        <route edges="07to05 05to04 04to01"/>
    </vehicle>
    <vehicle id="15" type="pass" depart="54279.00" departLane="free" departSpeed="max" fromTaz="TAZ1" toTaz="TAZ2">
        <route edges="02to04 04to05 05to07"/>
    </vehicle>
    <vehicle id="116" type="pass" depart="54297.00" departLane="free" departSpeed="max" fromTaz="TAZ2" toTaz="TAZ1">
        <route edges="07to05 05to04 04to02"/>
    </vehicle>
    <vehicle id="16" type="pass" depart="54297.00" departLane="free" departSpeed="max" fromTaz="TAZ1" toTaz="TAZ2">
        <route edges="02to04 04to05 05to07"/>
    </vehicle>
    <vehicle id="117" type="pass" depart="54315.00" departLane="free" departSpeed="max" fromTaz="TAZ2" toTaz="TAZ1">
        <route edges="06to05 05to04 04to02"/>
    </vehicle>
    <vehicle id="17" type="pass" depart="54315.00" departLane="free" departSpeed="max" fromTaz="TAZ1" toTaz="TAZ2">
        <route edges="03to04 04to05 05to07"/>
    </vehicle>
    <vehicle id="118" type="pass" depart="54333.00" departLane="free" departSpeed="max" fromTaz="TAZ2" toTaz="TAZ1">
        <route edges="07to05 05to04 04to02"/>
    </vehicle>
    <vehicle id="18" type="pass" depart="54333.00" departLane="free" departSpeed="max" fromTaz="TAZ1" toTaz="TAZ2">
        <route edges="02to04 04to05 05to07"/>
    </vehicle>
    <vehicle id="119" type="pass" depart="54351.00" departLane="free" departSpeed="max" fromTaz="TAZ2" toTaz="TAZ1">
        <route edges="07to05 05to04 04to02"/>
    </vehicle>
    <vehicle id="19" type="pass" depart="54351.00" departLane="free" departSpeed="max" fromTaz="TAZ1" toTaz="TAZ2">
        <route edges="02to04 04to05 05to07"/>
    </vehicle>
    <vehicle id="120" type="pass" depart="54369.00" departLane="free" departSpeed="max" fromTaz="TAZ2" toTaz="TAZ1">
        <route edges="07to05 05to04 04to02"/>
    </vehicle>
    <vehicle id="20" type="pass" depart="54369.00" departLane="free" departSpeed="max" fromTaz="TAZ1" toTaz="TAZ2">
        <route edges="02to04 04to05 05to07"/>
    </vehicle>
    <vehicle id="121" type="pass" depart="54387.00" departLane="free" departSpeed="max" fromTaz="TAZ2" toTaz="TAZ1">
        <route edges="07to05 05to04 04to02"/>
    </vehicle>
    <vehicle id="21" type="pass" depart="54387.00" departLane="free" departSpeed="max" fromTaz="TAZ1" toTaz="TAZ2">
        <route edges="02to04 04to05 05to08"/>
    </vehicle>
    <vehicle id="122" type="pass" depart="54405.00" departLane="free" departSpeed="max" fromTaz="TAZ2" toTaz="TAZ1">
        <route edges="07to05 05to04 04to01"/>
    </vehicle>
    <vehicle id="22" type="pass" depart="54405.00" departLane="free" departSpeed="max" fromTaz="TAZ1" toTaz="TAZ2">
        <route edges="02to04 04to05 05to07"/>
    </vehicle>
    <vehicle id="123" type="pass" depart="54423.00" departLane="free" departSpeed="max" fromTaz="TAZ2" toTaz="TAZ1">
        <route edges="07to05 05to04 04to02"/>
    </vehicle>
    <vehicle id="23" type="pass" depart="54423.00" departLane="free" departSpeed="max" fromTaz="TAZ1" toTaz="TAZ2">
        <route edges="02to04 04to05 05to07"/>
    </vehicle>
    <vehicle id="124" type="pass" depart="54441.00" departLane="free" departSpeed="max" fromTaz="TAZ2" toTaz="TAZ1">
        <route edges="06to05 05to04 04to02"/>
    </vehicle>
    <vehicle id="24" type="pass" depart="54441.00" departLane="free" departSpeed="max" fromTaz="TAZ1" toTaz="TAZ2">
        <route edges="02to04 04to05 05to07"/>
    </vehicle>
    <vehicle id="125" type="pass" depart="54459.00" departLane="free" departSpeed="max" fromTaz="TAZ2" toTaz="TAZ1">
        <route edges="06to05 05to04 04to01"/>
    </vehicle>
    <vehicle id="25" type="pass" depart="54459.00" departLane="free" departSpeed="max" fromTaz="TAZ1" toTaz="TAZ2">
        <route edges="02to04 04to05 05to07"/>
    </vehicle>
    <vehicle id="126" type="pass" depart="54477.00" departLane="free" departSpeed="max" fromTaz="TAZ2" toTaz="TAZ1">
        <route edges="07to05 05to04 04to02"/>
    </vehicle>
    <vehicle id="26" type="pass" depart="54477.00" departLane="free" departSpeed="max" fromTaz="TAZ1" toTaz="TAZ2">
        <route edges="02to04 04to05 05to07"/>
    </vehicle>
    <vehicle id="127" type="pass" depart="54495.00" departLane="free" departSpeed="max" fromTaz="TAZ2" toTaz="TAZ1">
        <route edges="07to05 05to04 04to01"/>
    </vehicle>
    <vehicle id="27" type="pass" depart="54495.00" departLane="free" departSpeed="max" fromTaz="TAZ1" toTaz="TAZ2">
        <route edges="02to04 04to05 05to08"/>
    </vehicle>
    <vehicle id="128" type="pass" depart="54513.00" departLane="free" departSpeed="max" fromTaz="TAZ2" toTaz="TAZ1">
        <route edges="07to05 05to04 04to01"/>
    </vehicle>
    <vehicle id="28" type="pass" depart="54513.00" departLane="free" departSpeed="max" fromTaz="TAZ1" toTaz="TAZ2">
        <route edges="03to04 04to05 05to08"/>
    </vehicle>
    <vehicle id="129" type="pass" depart="54531.00" departLane="free" departSpeed="max" fromTaz="TAZ2" toTaz="TAZ1">
        <route edges="06to05 05to04 04to01"/>
    </vehicle>
    <vehicle id="29" type="pass" depart="54531.00" departLane="free" departSpeed="max" fromTaz="TAZ1" toTaz="TAZ2">
        <route edges="02to04 04to05 05to07"/>
    </vehicle>
    <vehicle id="130" type="pass" depart="54549.00" departLane="free" departSpeed="max" fromTaz="TAZ2" toTaz="TAZ1">
        <route edges="07to05 05to04 04to01"/>
    </vehicle>
    <vehicle id="30" type="pass" depart="54549.00" departLane="free" departSpeed="max" fromTaz="TAZ1" toTaz="TAZ2">
        <route edges="02to04 04to05 05to08"/>
    </vehicle>
    <vehicle id="131" type="pass" depart="54567.00" departLane="free" departSpeed="max" fromTaz="TAZ2" toTaz="TAZ1">
        <route edges="07to05 05to04 04to02"/>
    </vehicle>
    <vehicle id="31" type="pass" depart="54567.00" departLane="free" departSpeed="max" fromTaz="TAZ1" toTaz="TAZ2">
        <route edges="02to04 04to05 05to08"/>
    </vehicle>
    <vehicle id="132" type="pass" depart="54585.00" departLane="free" departSpeed="max" fromTaz="TAZ2" toTaz="TAZ1">
        <route edges="06to05 05to04 04to02"/>
    </vehicle>
    <vehicle id="32" type="pass" depart="54585.00" departLane="free" departSpeed="max" fromTaz="TAZ1" toTaz="TAZ2">
        <route edges="03to04 04to05 05to08"/>
    </vehicle>
    <vehicle id="133" type="pass" depart="54603.00" departLane="free" departSpeed="max" fromTaz="TAZ2" toTaz="TAZ1">
        <route edges="07to05 05to04 04to02"/>
    </vehicle>
    <vehicle id="33" type="pass" depart="54603.00" departLane="free" departSpeed="max" fromTaz="TAZ1" toTaz="TAZ2">
        <route edges="02to04 04to05 05to07"/>
    </vehicle>
    <vehicle id="134" type="pass" depart="54621.00" departLane="free" departSpeed="max" fromTaz="TAZ2" toTaz="TAZ1">
        <route edges="06to05 05to04 04to02"/>
    </vehicle>
    <vehicle id="34" type="pass" depart="54621.00" departLane="free" departSpeed="max" fromTaz="TAZ1" toTaz="TAZ2">
        <route edges="02to04 04to05 05to08"/>
    </vehicle>
    <vehicle id="135" type="pass" depart="54639.00" departLane="free" departSpeed="max" fromTaz="TAZ2" toTaz="TAZ1">
        <route edges="07to05 05to04 04to01"/>
    </vehicle>
    <vehicle id="35" type="pass" depart="54639.00" departLane="free" departSpeed="max" fromTaz="TAZ1" toTaz="TAZ2">
        <route edges="03to04 04to05 05to08"/>
    </vehicle>
    <vehicle id="136" type="pass" depart="54657.00" departLane="free" departSpeed="max" fromTaz="TAZ2" toTaz="TAZ1">
        <route edges="07to05 05to04 04to01"/>
    </vehicle>
    <vehicle id="36" type="pass" depart="54657.00" departLane="free" departSpeed="max" fromTaz="TAZ1" toTaz="TAZ2">
        <route edges="02to04 04to05 05to07"/>
    </vehicle>
    <vehicle id="137" type="pass" depart="54675.00" departLane="free" departSpeed="max" fromTaz="TAZ2" toTaz="TAZ1">
        <route edges="06to05 05to04 04to02"/>
    </vehicle>
    <vehicle id="37" type="pass" depart="54675.00" departLane="free" departSpeed="max" fromTaz="TAZ1" toTaz="TAZ2">
        <route edges="02to04 04to05 05to07"/>
    </vehicle>
    <vehicle id="138" type="pass" depart="54693.00" departLane="free" departSpeed="max" fromTaz="TAZ2" toTaz="TAZ1">
        <route edges="06to05 05to04 04to02"/>
    </vehicle>
    <vehicle id="38" type="pass" depart="54693.00" departLane="free" departSpeed="max" fromTaz="TAZ1" toTaz="TAZ2">
        <route edges="03to04 04to05 05to08"/>
    </vehicle>
    <vehicle id="139" type="pass" depart="54711.00" departLane="free" departSpeed="max" fromTaz="TAZ2" toTaz="TAZ1">
        <route edges="07to05 05to04 04to02"/>
    </vehicle>
    <vehicle id="39" type="pass" depart="54711.00" departLane="free" departSpeed="max" fromTaz="TAZ1" toTaz="TAZ2">
        <route edges="02to04 04to05 05to08"/>
    </vehicle>
    <vehicle id="140" type="pass" depart="54729.00" departLane="free" departSpeed="max" fromTaz="TAZ2" toTaz="TAZ1">
        <route edges="07to05 05to04 04to02"/>
    </vehicle>
    <vehicle id="40" type="pass" depart="54729.00" departLane="free" departSpeed="max" fromTaz="TAZ1" toTaz="TAZ2">
        <route edges="02to04 04to05 05to07"/>
    </vehicle>
    <vehicle id="141" type="pass" depart="54747.00" departLane="free" departSpeed="max" fromTaz="TAZ2" toTaz="TAZ1">
        <route edges="07to05 05to04 04to02"/>
    </vehicle>
    <vehicle id="41" type="pass" depart="54747.00" departLane="free" departSpeed="max" fromTaz="TAZ1" toTaz="TAZ2">
        <route edges="02to04 04to05 05to07"/>
    </vehicle>
    <vehicle id="142" type="pass" depart="54765.00" departLane="free" departSpeed="max" fromTaz="TAZ2" toTaz="TAZ1">
        <route edges="06to05 05to04 04to02"/>
    </vehicle>
    <vehicle id="42" type="pass" depart="54765.00" departLane="free" departSpeed="max" fromTaz="TAZ1" toTaz="TAZ2">
        <route edges="02to04 04to05 05to07"/>
    </vehicle>
    <vehicle id="143" type="pass" depart="54783.00" departLane="free" departSpeed="max" fromTaz="TAZ2" toTaz="TAZ1">
        <route edges="07to05 05to04 04to02"/>
    </vehicle>
    <vehicle id="43" type="pass" depart="54783.00" departLane="free" departSpeed="max" fromTaz="TAZ1" toTaz="TAZ2">
        <route edges="02to04 04to05 05to08"/>
    </vehicle>
    <vehicle id="144" type="pass" depart="54801.00" departLane="free" departSpeed="max" fromTaz="TAZ2" toTaz="TAZ1">
        <route edges="07to05 05to04 04to01"/>
    </vehicle>
    <vehicle id="44" type="pass" depart="54801.00" departLane="free" departSpeed="max" fromTaz="TAZ1" toTaz="TAZ2">
        <route edges="02to04 04to05 05to07"/>
    </vehicle>
    <vehicle id="145" type="pass" depart="54819.00" departLane="free" departSpeed="max" fromTaz="TAZ2" toTaz="TAZ1">
        <route edges="07to05 05to04 04to02"/>
    </vehicle>
    <vehicle id="45" type="pass" depart="54819.00" departLane="free" departSpeed="max" fromTaz="TAZ1" toTaz="TAZ2">
        <route edges="02to04 04to05 05to07"/>
    </vehicle>
    <vehicle id="146" type="pass" depart="54837.00" departLane="free" departSpeed="max" fromTaz="TAZ2" toTaz="TAZ1">
        <route edges="06to05 05to04 04to02"/>
    </vehicle>
    <vehicle id="46" type="pass" depart="54837.00" departLane="free" departSpeed="max" fromTaz="TAZ1" toTaz="TAZ2">
        <route edges="02to04 04to05 05to08"/>
    </vehicle>
    <vehicle id="147" type="pass" depart="54855.00" departLane="free" departSpeed="max" fromTaz="TAZ2" toTaz="TAZ1">
        <route edges="06to05 05to04 04to02"/>
    </vehicle>
    <vehicle id="47" type="pass" depart="54855.00" departLane="free" departSpeed="max" fromTaz="TAZ1" toTaz="TAZ2">
        <route edges="02to04 04to05 05to07"/>
    </vehicle>
    <vehicle id="148" type="pass" depart="54873.00" departLane="free" departSpeed="max" fromTaz="TAZ2" toTaz="TAZ1">
        <route edges="07to05 05to04 04to02"/>
    </vehicle>
    <vehicle id="48" type="pass" depart="54873.00" departLane="free" departSpeed="max" fromTaz="TAZ1" toTaz="TAZ2">
        <route edges="02to04 04to05 05to08"/>
    </vehicle>
    <vehicle id="149" type="pass" depart="54891.00" departLane="free" departSpeed="max" fromTaz="TAZ2" toTaz="TAZ1">
        <route edges="07to05 05to04 04to02"/>
    </vehicle>
    <vehicle id="49" type="pass" depart="54891.00" departLane="free" departSpeed="max" fromTaz="TAZ1" toTaz="TAZ2">
        <route edges="02to04 04to05 05to08"/>
    </vehicle>
    <vehicle id="150" type="pass" depart="54909.00" departLane="free" departSpeed="max" fromTaz="TAZ2" toTaz="TAZ1">
        <route edges="06to05 05to04 04to02"/>
    </vehicle>
    <vehicle id="50" type="pass" depart="54909.00" departLane="free" departSpeed="max" fromTaz="TAZ1" toTaz="TAZ2">
        <route edges="03to04 04to05 05to07"/>
    </vehicle>
    <vehicle id="151" type="pass" depart="54927.00" departLane="free" departSpeed="max" fromTaz="TAZ2" toTaz="TAZ1">
        <route edges="07to05 05to04 04to02"/>
    </vehicle>
    <vehicle id="51" type="pass" depart="54927.00" departLane="free" departSpeed="max" fromTaz="TAZ1" toTaz="TAZ2">
        <route edges="03to04 04to05 05to07"/>
    </vehicle>
    <vehicle id="152" type="pass" depart="54945.00" departLane="free" departSpeed="max" fromTaz="TAZ2" toTaz="TAZ1">
        <route edges="06to05 05to04 04to02"/>
    </vehicle>
    <vehicle id="52" type="pass" depart="54945.00" departLane="free" departSpeed="max" fromTaz="TAZ1" toTaz="TAZ2">
        <route edges="03to04 04to05 05to07"/>
    </vehicle>
    <vehicle id="153" type="pass" depart="54963.00" departLane="free" departSpeed="max" fromTaz="TAZ2" toTaz="TAZ1">
        <route edges="07to05 05to04 04to01"/>
    </vehicle>
    <vehicle id="53" type="pass" depart="54963.00" departLane="free" departSpeed="max" fromTaz="TAZ1" toTaz="TAZ2">
        <route edges="03to04 04to05 05to07"/>
    </vehicle>
    <vehicle id="154" type="pass" depart="54981.00" departLane="free" departSpeed="max" fromTaz="TAZ2" toTaz="TAZ1">
        <route edges="06to05 05to04 04to02"/>
    </vehicle>
    <vehicle id="54" type="pass" depart="54981.00" departLane="free" departSpeed="max" fromTaz="TAZ1" toTaz="TAZ2">
        <route edges="02to04 04to05 05to07"/>
    </vehicle>
    <vehicle id="155" type="pass" depart="54999.00" departLane="free" departSpeed="max" fromTaz="TAZ2" toTaz="TAZ1">
        <route edges="07to05 05to04 04to02"/>
    </vehicle>
    <vehicle id="55" type="pass" depart="54999.00" departLane="free" departSpeed="max" fromTaz="TAZ1" toTaz="TAZ2">
        <route edges="03to04 04to05 05to07"/>
    </vehicle>
    <vehicle id="156" type="pass" depart="55017.00" departLane="free" departSpeed="max" fromTaz="TAZ2" toTaz="TAZ1">
        <route edges="07to05 05to04 04to02"/>
    </vehicle>
    <vehicle id="56" type="pass" depart="55017.00" departLane="free" departSpeed="max" fromTaz="TAZ1" toTaz="TAZ2">
        <route edges="02to04 04to05 05to08"/>
    </vehicle>
    <vehicle id="157" type="pass" depart="55035.00" departLane="free" departSpeed="max" fromTaz="TAZ2" toTaz="TAZ1">
        <route edges="07to05 05to04 04to02"/>
    </vehicle>
    <vehicle id="57" type="pass" depart="55035.00" departLane="free" departSpeed="max" fromTaz="TAZ1" toTaz="TAZ2">
        <route edges="03to04 04to05 05to07"/>
    </vehicle>
    <vehicle id="158" type="pass" depart="55053.00" departLane="free" departSpeed="max" fromTaz="TAZ2" toTaz="TAZ1">
        <route edges="06to05 05to04 04to02"/>
    </vehicle>
    <vehicle id="58" type="pass" depart="55053.00" departLane="free" departSpeed="max" fromTaz="TAZ1" toTaz="TAZ2">
        <route edges="02to04 04to05 05to08"/>
    </vehicle>
    <vehicle id="159" type="pass" depart="55071.00" departLane="free" departSpeed="max" fromTaz="TAZ2" toTaz="TAZ1">
        <route edges="07to05 05to04 04to01"/>
    </vehicle>
    <vehicle id="59" type="pass" depart="55071.00" departLane="free" departSpeed="max" fromTaz="TAZ1" toTaz="TAZ2">
        <route edges="02to04 04to05 05to08"/>
    </vehicle>
    <vehicle id="160" type="pass" depart="55089.00" departLane="free" departSpeed="max" fromTaz="TAZ2" toTaz="TAZ1">
        <route edges="06to05 05to04 04to02"/>
    </vehicle>
    <vehicle id="60" type="pass" depart="55089.00" departLane="free" departSpeed="max" fromTaz="TAZ1" toTaz="TAZ2">
        <route edges="02to04 04to05 05to07"/>
    </vehicle>
    <vehicle id="161" type="pass" depart="55107.00" departLane="free" departSpeed="max" fromTaz="TAZ2" toTaz="TAZ1">
        <route edges="06to05 05to04 04to01"/>
    </vehicle>
    <vehicle id="61" type="pass" depart="55107.00" departLane="free" departSpeed="max" fromTaz="TAZ1" toTaz="TAZ2">
        <route edges="02to04 04to05 05to08"/>
    </vehicle>
    <vehicle id="162" type="pass" depart="55125.00" departLane="free" departSpeed="max" fromTaz="TAZ2" toTaz="TAZ1">
        <route edges="07to05 05to04 04to01"/>
    </vehicle>
    <vehicle id="62" type="pass" depart="55125.00" departLane="free" departSpeed="max" fromTaz="TAZ1" toTaz="TAZ2">
        <route edges="02to04 04to05 05to07"/>
    </vehicle>
    <vehicle id="163" type="pass" depart="55143.00" departLane="free" departSpeed="max" fromTaz="TAZ2" toTaz="TAZ1">
        <route edges="06to05 05to04 04to02"/>
    </vehicle>
    <vehicle id="63" type="pass" depart="55143.00" departLane="free" departSpeed="max" fromTaz="TAZ1" toTaz="TAZ2">
        <route edges="02to04 04to05 05to07"/>
    </vehicle>
    <vehicle id="164" type="pass" depart="55161.00" departLane="free" departSpeed="max" fromTaz="TAZ2" toTaz="TAZ1">
        <route edges="07to05 05to04 04to02"/>
    </vehicle>
    <vehicle id="64" type="pass" depart="55161.00" departLane="free" departSpeed="max" fromTaz="TAZ1" toTaz="TAZ2">
        <route edges="02to04 04to05 05to08"/>
    </vehicle>
    <vehicle id="165" type="pass" depart="55179.00" departLane="free" departSpeed="max" fromTaz="TAZ2" toTaz="TAZ1">
        <route edges="07to05 05to04 04to02"/>
    </vehicle>
    <vehicle id="65" type="pass" depart="55179.00" departLane="free" departSpeed="max" fromTaz="TAZ1" toTaz="TAZ2">
        <route edges="02to04 04to05 05to08"/>
    </vehicle>
    <vehicle id="166" type="pass" depart="55197.00" departLane="free" departSpeed="max" fromTaz="TAZ2" toTaz="TAZ1">
        <route edges="06to05 05to04 04to02"/>
    </vehicle>
    <vehicle id="66" type="pass" depart="55197.00" departLane="free" departSpeed="max" fromTaz="TAZ1" toTaz="TAZ2">
        <route edges="02to04 04to05 05to07"/>
    </vehicle>
    <vehicle id="167" type="pass" depart="55215.00" departLane="free" departSpeed="max" fromTaz="TAZ2" toTaz="TAZ1">
        <route edges="07to05 05to04 04to01"/>
    </vehicle>
    <vehicle id="67" type="pass" depart="55215.00" departLane="free" departSpeed="max" fromTaz="TAZ1" toTaz="TAZ2">
        <route edges="02to04 04to05 05to07"/>
    </vehicle>
    <vehicle id="168" type="pass" depart="55233.00" departLane="free" departSpeed="max" fromTaz="TAZ2" toTaz="TAZ1">
        <route edges="07to05 05to04 04to01"/>
    </vehicle>
    <vehicle id="68" type="pass" depart="55233.00" departLane="free" departSpeed="max" fromTaz="TAZ1" toTaz="TAZ2">
        <route edges="03to04 04to05 05to08"/>
    </vehicle>
    <vehicle id="169" type="pass" depart="55251.00" departLane="free" departSpeed="max" fromTaz="TAZ2" toTaz="TAZ1">
        <route edges="07to05 05to04 04to01"/>
    </vehicle>
    <vehicle id="69" type="pass" depart="55251.00" departLane="free" departSpeed="max" fromTaz="TAZ1" toTaz="TAZ2">
        <route edges="03to04 04to05 05to07"/>
    </vehicle>
    <vehicle id="170" type="pass" depart="55269.00" departLane="free" departSpeed="max" fromTaz="TAZ2" toTaz="TAZ1">
        <route edges="07to05 05to04 04to02"/>
    </vehicle>
    <vehicle id="70" type="pass" depart="55269.00" departLane="free" departSpeed="max" fromTaz="TAZ1" toTaz="TAZ2">
        <route edges="02to04 04to05 05to08"/>
    </vehicle>
    <vehicle id="171" type="pass" depart="55287.00" departLane="free" departSpeed="max" fromTaz="TAZ2" toTaz="TAZ1">
        <route edges="07to05 05to04 04to01"/>
    </vehicle>
    <vehicle id="71" type="pass" depart="55287.00" departLane="free" departSpeed="max" fromTaz="TAZ1" toTaz="TAZ2">
        <route edges="02to04 04to05 05to07"/>
    </vehicle>
    <vehicle id="172" type="pass" depart="55305.00" departLane="free" departSpeed="max" fromTaz="TAZ2" toTaz="TAZ1">
        <route edges="07to05 05to04 04to02"/>
    </vehicle>
    <vehicle id="72" type="pass" depart="55305.00" departLane="free" departSpeed="max" fromTaz="TAZ1" toTaz="TAZ2">
        <route edges="02to04 04to05 05to07"/>
    </vehicle>
    <vehicle id="173" type="pass" depart="55323.00" departLane="free" departSpeed="max" fromTaz="TAZ2" toTaz="TAZ1">
        <route edges="07to05 05to04 04to01"/>
    </vehicle>
    <vehicle id="73" type="pass" depart="55323.00" departLane="free" departSpeed="max" fromTaz="TAZ1" toTaz="TAZ2">
        <route edges="02to04 04to05 05to07"/>
    </vehicle>
    <vehicle id="174" type="pass" depart="55341.00" departLane="free" departSpeed="max" fromTaz="TAZ2" toTaz="TAZ1">
        <route edges="07to05 05to04 04to01"/>
    </vehicle>
    <vehicle id="74" type="pass" depart="55341.00" departLane="free" departSpeed="max" fromTaz="TAZ1" toTaz="TAZ2">
        <route edges="03to04 04to05 05to07"/>
    </vehicle>
    <vehicle id="175" type="pass" depart="55359.00" departLane="free" departSpeed="max" fromTaz="TAZ2" toTaz="TAZ1">
        <route edges="07to05 05to04 04to01"/>
    </vehicle>
    <vehicle id="75" type="pass" depart="55359.00" departLane="free" departSpeed="max" fromTaz="TAZ1" toTaz="TAZ2">
        <route edges="02to04 04to05 05to07"/>
    </vehicle>
    <vehicle id="176" type="pass" depart="55377.00" departLane="free" departSpeed="max" fromTaz="TAZ2" toTaz="TAZ1">
        <route edges="07to05 05to04 04to02"/>
    </vehicle>
    <vehicle id="76" type="pass" depart="55377.00" departLane="free" departSpeed="max" fromTaz="TAZ1" toTaz="TAZ2">
        <route edges="02to04 04to05 05to07"/>
    </vehicle>
    <vehicle id="177" type="pass" depart="55395.00" departLane="free" departSpeed="max" fromTaz="TAZ2" toTaz="TAZ1">
        <route edges="07to05 05to04 04to02"/>
    </vehicle>
    <vehicle id="77" type="pass" depart="55395.00" departLane="free" departSpeed="max" fromTaz="TAZ1" toTaz="TAZ2">
        <route edges="03to04 04to05 05to08"/>
    </vehicle>
    <vehicle id="178" type="pass" depart="55413.00" departLane="free" departSpeed="max" fromTaz="TAZ2" toTaz="TAZ1">
        <route edges="07to05 05to04 04to01"/>
    </vehicle>
    <vehicle id="78" type="pass" depart="55413.00" departLane="free" departSpeed="max" fromTaz="TAZ1" toTaz="TAZ2">
        <route edges="03to04 04to05 05to08"/>
    </vehicle>
    <vehicle id="179" type="pass" depart="55431.00" departLane="free" departSpeed="max" fromTaz="TAZ2" toTaz="TAZ1">
        <route edges="07to05 05to04 04to02"/>
    </vehicle>
    <vehicle id="79" type="pass" depart="55431.00" departLane="free" departSpeed="max" fromTaz="TAZ1" toTaz="TAZ2">
        <route edges="02to04 04to05 05to08"/>
    </vehicle>
    <vehicle id="180" type="pass" depart="55449.00" departLane="free" departSpeed="max" fromTaz="TAZ2" toTaz="TAZ1">
        <route edges="07to05 05to04 04to01"/>
    </vehicle>
    <vehicle id="80" type="pass" depart="55449.00" departLane="free" departSpeed="max" fromTaz="TAZ1" toTaz="TAZ2">
        <route edges="03to04 04to05 05to07"/>
    </vehicle>