<?xml version="1.0" encoding="UTF-8"?>
<types xmlns:xsi="http://www.w3.org/2001/XMLSchema-instance" xsi:noNamespaceSchemaLocation="http://sumo.dlr.de/xsd/types_file.xsd">
    <type id="road_a" priority="100" numLanes="1" speed="65.00"/>
    <type id="road_b" priority="50" numLanes="1" speed="43.88"/>
    <type id="road_c" priority="20" numLanes="1" speed="28.33"/>
    <type id="road_d" priority="10" numLanes="1" speed="0.50"/>
</types>
