<additional xmlns:xsi="http://www.w3.org/2001/XMLSchema-instance" xsi:noNamespaceSchemaLocation="http://sumo.dlr.de/xsd/additional_file.xsd">
	<inductionLoop id="loop_ew06to05_0" lane="ew06to05_0" pos="95.0" freq="10" file="/Users/ctomas/RTGAR/python/testgar/src/../data/__loops_measurements.xml"/>
	<inductionLoop id="loop_ew07to06_0" lane="ew07to06_0" pos="90.0" freq="10" file="/Users/ctomas/RTGAR/python/testgar/src/../data/__loops_measurements.xml"/>
	<inductionLoop id="loop_ew08to07_0" lane="ew08to07_0" pos="90.0" freq="10" file="/Users/ctomas/RTGAR/python/testgar/src/../data/__loops_measurements.xml"/>
	<inductionLoop id="loop_ew09to08_0" lane="ew09to08_0" pos="95.0" freq="10" file="/Users/ctomas/RTGAR/python/testgar/src/../data/__loops_measurements.xml"/>
	<inductionLoop id="loop_ew12to11_0" lane="ew12to11_0" pos="95.0" freq="10" file="/Users/ctomas/RTGAR/python/testgar/src/../data/__loops_measurements.xml"/>
	<inductionLoop id="loop_ew13to12_0" lane="ew13to12_0" pos="90.0" freq="10" file="/Users/ctomas/RTGAR/python/testgar/src/../data/__loops_measurements.xml"/>
	<inductionLoop id="loop_ew14to13_0" lane="ew14to13_0" pos="90.0" freq="10" file="/Users/ctomas/RTGAR/python/testgar/src/../data/__loops_measurements.xml"/>
	<inductionLoop id="loop_ew15to14_0" lane="ew15to14_0" pos="95.0" freq="10" file="/Users/ctomas/RTGAR/python/testgar/src/../data/__loops_measurements.xml"/>
	<inductionLoop id="loop_ew18to17_0" lane="ew18to17_0" pos="95.0" freq="10" file="/Users/ctomas/RTGAR/python/testgar/src/../data/__loops_measurements.xml"/>
	<inductionLoop id="loop_ew19to18_0" lane="ew19to18_0" pos="90.0" freq="10" file="/Users/ctomas/RTGAR/python/testgar/src/../data/__loops_measurements.xml"/>
	<inductionLoop id="loop_ew20to19_0" lane="ew20to19_0" pos="90.0" freq="10" file="/Users/ctomas/RTGAR/python/testgar/src/../data/__loops_measurements.xml"/>
	<inductionLoop id="loop_ew21to20_0" lane="ew21to20_0" pos="95.0" freq="10" file="/Users/ctomas/RTGAR/python/testgar/src/../data/__loops_measurements.xml"/>
	<inductionLoop id="loop_ns01to06_0" lane="ns01to06_0" pos="95.0" freq="10" file="/Users/ctomas/RTGAR/python/testgar/src/../data/__loops_measurements.xml"/>
	<inductionLoop id="loop_ns02to07_0" lane="ns02to07_0" pos="95.0" freq="10" file="/Users/ctomas/RTGAR/python/testgar/src/../data/__loops_measurements.xml"/>
	<inductionLoop id="loop_ns03to08_0" lane="ns03to08_0" pos="95.0" freq="10" file="/Users/ctomas/RTGAR/python/testgar/src/../data/__loops_measurements.xml"/>
	<inductionLoop id="loop_ns06to12_0" lane="ns06to12_0" pos="90.0" freq="10" file="/Users/ctomas/RTGAR/python/testgar/src/../data/__loops_measurements.xml"/>
	<inductionLoop id="loop_ns07to13_0" lane="ns07to13_0" pos="90.0" freq="10" file="/Users/ctomas/RTGAR/python/testgar/src/../data/__loops_measurements.xml"/>
	<inductionLoop id="loop_ns08to14_0" lane="ns08to14_0" pos="90.0" freq="10" file="/Users/ctomas/RTGAR/python/testgar/src/../data/__loops_measurements.xml"/>
	<inductionLoop id="loop_ns12to18_0" lane="ns12to18_0" pos="90.0" freq="10" file="/Users/ctomas/RTGAR/python/testgar/src/../data/__loops_measurements.xml"/>
	<inductionLoop id="loop_ns13to19_0" lane="ns13to19_0" pos="90.0" freq="10" file="/Users/ctomas/RTGAR/python/testgar/src/../data/__loops_measurements.xml"/>
	<inductionLoop id="loop_ns14to20_0" lane="ns14to20_0" pos="90.0" freq="10" file="/Users/ctomas/RTGAR/python/testgar/src/../data/__loops_measurements.xml"/>
	<inductionLoop id="loop_ns18to24_0" lane="ns18to24_0" pos="95.0" freq="10" file="/Users/ctomas/RTGAR/python/testgar/src/../data/__loops_measurements.xml"/>
	<inductionLoop id="loop_ns19to25_0" lane="ns19to25_0" pos="95.0" freq="10" file="/Users/ctomas/RTGAR/python/testgar/src/../data/__loops_measurements.xml"/>
	<inductionLoop id="loop_ns20to26_0" lane="ns20to26_0" pos="95.0" freq="10" file="/Users/ctomas/RTGAR/python/testgar/src/../data/__loops_measurements.xml"/>
	<inductionLoop id="loop_sn06to01_0" lane="sn06to01_0" pos="95.0" freq="10" file="/Users/ctomas/RTGAR/python/testgar/src/../data/__loops_measurements.xml"/>
	<inductionLoop id="loop_sn07to02_0" lane="sn07to02_0" pos="95.0" freq="10" file="/Users/ctomas/RTGAR/python/testgar/src/../data/__loops_measurements.xml"/>
	<inductionLoop id="loop_sn08to03_0" lane="sn08to03_0" pos="95.0" freq="10" file="/Users/ctomas/RTGAR/python/testgar/src/../data/__loops_measurements.xml"/>
	<inductionLoop id="loop_sn12to06_0" lane="sn12to06_0" pos="90.0" freq="10" file="/Users/ctomas/RTGAR/python/testgar/src/../data/__loops_measurements.xml"/>
	<inductionLoop id="loop_sn13to07_0" lane="sn13to07_0" pos="90.0" freq="10" file="/Users/ctomas/RTGAR/python/testgar/src/../data/__loops_measurements.xml"/>
	<inductionLoop id="loop_sn14to08_0" lane="sn14to08_0" pos="90.0" freq="10" file="/Users/ctomas/RTGAR/python/testgar/src/../data/__loops_measurements.xml"/>
	<inductionLoop id="loop_sn18to12_0" lane="sn18to12_0" pos="90.0" freq="10" file="/Users/ctomas/RTGAR/python/testgar/src/../data/__loops_measurements.xml"/>
	<inductionLoop id="loop_sn19to13_0" lane="sn19to13_0" pos="90.0" freq="10" file="/Users/ctomas/RTGAR/python/testgar/src/../data/__loops_measurements.xml"/>
	<inductionLoop id="loop_sn20to14_0" lane="sn20to14_0" pos="90.0" freq="10" file="/Users/ctomas/RTGAR/python/testgar/src/../data/__loops_measurements.xml"/>
	<inductionLoop id="loop_sn24to18_0" lane="sn24to18_0" pos="95.0" freq="10" file="/Users/ctomas/RTGAR/python/testgar/src/../data/__loops_measurements.xml"/>
	<inductionLoop id="loop_sn25to19_0" lane="sn25to19_0" pos="95.0" freq="10" file="/Users/ctomas/RTGAR/python/testgar/src/../data/__loops_measurements.xml"/>
	<inductionLoop id="loop_sn26to20_0" lane="sn26to20_0" pos="95.0" freq="10" file="/Users/ctomas/RTGAR/python/testgar/src/../data/__loops_measurements.xml"/>
	<inductionLoop id="loop_we05to06_0" lane="we05to06_0" pos="95.0" freq="10" file="/Users/ctomas/RTGAR/python/testgar/src/../data/__loops_measurements.xml"/>
	<inductionLoop id="loop_we06to07_0" lane="we06to07_0" pos="90.0" freq="10" file="/Users/ctomas/RTGAR/python/testgar/src/../data/__loops_measurements.xml"/>
	<inductionLoop id="loop_we07to08_0" lane="we07to08_0" pos="90.0" freq="10" file="/Users/ctomas/RTGAR/python/testgar/src/../data/__loops_measurements.xml"/>
	<inductionLoop id="loop_we08to09_0" lane="we08to09_0" pos="95.0" freq="10" file="/Users/ctomas/RTGAR/python/testgar/src/../data/__loops_measurements.xml"/>
	<inductionLoop id="loop_we11to12_0" lane="we11to12_0" pos="95.0" freq="10" file="/Users/ctomas/RTGAR/python/testgar/src/../data/__loops_measurements.xml"/>
	<inductionLoop id="loop_we12to13_0" lane="we12to13_0" pos="90.0" freq="10" file="/Users/ctomas/RTGAR/python/testgar/src/../data/__loops_measurements.xml"/>
	<inductionLoop id="loop_we13to14_0" lane="we13to14_0" pos="90.0" freq="10" file="/Users/ctomas/RTGAR/python/testgar/src/../data/__loops_measurements.xml"/>
	<inductionLoop id="loop_we14to15_0" lane="we14to15_0" pos="95.0" freq="10" file="/Users/ctomas/RTGAR/python/testgar/src/../data/__loops_measurements.xml"/>
	<inductionLoop id="loop_we17to18_0" lane="we17to18_0" pos="95.0" freq="10" file="/Users/ctomas/RTGAR/python/testgar/src/../data/__loops_measurements.xml"/>
	<inductionLoop id="loop_we18to19_0" lane="we18to19_0" pos="90.0" freq="10" file="/Users/ctomas/RTGAR/python/testgar/src/../data/__loops_measurements.xml"/>
	<inductionLoop id="loop_we19to20_0" lane="we19to20_0" pos="90.0" freq="10" file="/Users/ctomas/RTGAR/python/testgar/src/../data/__loops_measurements.xml"/>
	<inductionLoop id="loop_we20to21_0" lane="we20to21_0" pos="95.0" freq="10" file="/Users/ctomas/RTGAR/python/testgar/src/../data/__loops_measurements.xml"/>
</additional>