<?xml version="1.0" encoding="UTF-8"?>
<nodes xmlns:xsi="http://www.w3.org/2001/XMLSchema-instance" xsi:noNamespaceSchemaLocation="http://sumo.dlr.de/xsd/nodes_file.xsd">
    <node id="n01" x="-300.0" y="+500.0" type="dead_end"          shape=""/>   
    <node id="n02" x="-100.0" y="+500.0" type="dead_end"          shape=""/>  
    <node id="n03" x="+100.0" y="+500.0" type="dead_end"          shape=""/>
	<node id="n04" x="+300.0" y="+500.0" type="dead_end"          shape=""/>
   	<node id="n05" x="-500.0" y="+300.0" type="dead_end"          shape=""/>
    <node id="n06" x="-300.0" y="+300.0" type="right_before_left" shape="-310.0,310.0 -310.0,290.0 -290.0,290.0 -290.0,310.0"/>
    <node id="n07" x="-100.0" y="+300.0" type="priority"          shape="-110.0,310.0 -110.0,290.0 -90.0,290.0 -90.0,310.0"/>
    <node id="n08" x="+100.0" y="+300.0" type="right_before_left" shape="90.0,310.0 90.0,290.0 110.0,290.0 110.0,310.0"/>
    <node id="n09" x="+300.0" y="+300.0" type="priority"          shape=""/>
    <node id="n10" x="+500.0" y="+300.0" type="dead_end"          shape=""/>   
   	<node id="n11" x="-500.0" y="+100.0" type="dead_end"          shape=""/>
    <node id="n12" x="-300.0" y="+100.0" type="priority"          shape="-310.0,110.0 -310.0,90.0 -290.0,90.0 -290.0,110.0"/>
    <node id="n13" x="-100.0" y="+100.0" type="right_before_left" shape="-110.0,110.0 -110.0,90.0 -90.0,90.0 -90.0,110.0"/>
    <node id="n14" x="+100.0" y="+100.0" type="priority"          shape="90.0,90.0 90.0,110.0 110.0,110.0 110.0,90.0"/>  
    <node id="n15" x="+300.0" y="+100.0" type="right_before_left" shape=""/>
    <node id="n16" x="+500.0" y="+100.0" type="dead_end"          shape=""/>   
   	<node id="n17" x="-500.0" y="-100.0" type="dead_end"          shape=""/>
    <node id="n18" x="-300.0" y="-100.0" type="right_before_left" shape="-310.0,-90.0 -310.0,-110.0 -290.0,-110.0 -290.0,-90.0"/>
    <node id="n19" x="-100.0" y="-100.0" type="priority"          shape="-110.0,-90.0 -110.0,-110.0 -90.0,-110.0 -90.0,-90.0"/>
    <node id="n20" x="+100.0" y="-100.0" type="right_before_left" shape="90.0,-90.0 90.0,-110.0 110.0,-110.0 110.0,-90.0"/>
    <node id="n21" x="+300.0" y="-100.0" type="priority"          shape=""/>
    <node id="n22" x="+500.0" y="-100.0" type="dead_end"          shape=""/>
   	<node id="n23" x="-500.0" y="-300.0" type="dead_end"          shape=""/>      
    <node id="n24" x="-300.0" y="-300.0" type="priority"          shape=""/>
    <node id="n25" x="-100.0" y="-300.0" type="right_before_left" shape=""/>
    <node id="n26" x="+100.0" y="-300.0" type="priority"          shape=""/>
    <node id="n27" x="+300.0" y="-300.0" type="right_before_left" shape="290.0,-290.0 290.0,-310.0 310.0,-310.0 310.0,-290.0"/>  
    <node id="n28" x="+500.0" y="-300.0" type="dead_end"          shape=""/>
   	<node id="n29" x="-300.0" y="-500.0" type="dead_end"          shape=""/>
   	<node id="n30" x="-100.0" y="-500.0" type="dead_end"          shape=""/>
   	<node id="n31" x="+100.0" y="-500.0" type="dead_end"          shape=""/>
   	<node id="n32" x="+300.0" y="-500.0" type="dead_end"          shape=""/>     
</nodes>
