<?xml version="1.0" encoding="UTF-8"?>

<!-- generated on Tue Sep 22 23:42:08 2015 by SUMO netconvert Version 0.22.0
<?xml version="1.0" encoding="UTF-8"?>

<configuration xmlns:xsi="http://www.w3.org/2001/XMLSchema-instance" xsi:noNamespaceSchemaLocation="http://sumo.dlr.de/xsd/netconvertConfiguration.xsd">

    <input>
        <node-files value="/Users/ctomas/RTGAR/python/testgar/src/../data/case_1.net.nod.xml"/>
        <edge-files value="/Users/ctomas/RTGAR/python/testgar/src/../data/case_1.net.edg.xml"/>
        <type-files value="/Users/ctomas/RTGAR/python/testgar/src/../data/case_1.net.typ.xml"/>
    </input>

    <output>
        <output-file value="/Users/ctomas/RTGAR/python/testgar/src/../data/__case_1.net.xml"/>
    </output>

    <processing>
        <no-turnarounds value="true"/>
    </processing>

    <report>
        <verbose value="true"/>
    </report>

</configuration>
-->

<net version="0.13" xmlns:xsi="http://www.w3.org/2001/XMLSchema-instance" xsi:noNamespaceSchemaLocation="http://sumo.dlr.de/xsd/net_file.xsd">

    <location netOffset="300.00,100.00" convBoundary="0.00,0.00,600.00,200.00" origBoundary="-300.00,-100.00,300.00,100.00" projParameter="!"/>

    <edge id=":n02_0" function="internal">
        <lane id=":n02_0_0" index="0" speed="46.66" length="5.00" shape="95.25,98.35 96.61,98.16 97.57,97.57 98.16,96.61 98.35,95.25"/>
    </edge>
    <edge id=":n02_1" function="internal">
        <lane id=":n02_1_0" index="0" speed="46.66" length="9.50" shape="95.25,98.35 104.75,98.35"/>
    </edge>
    <edge id=":n02_2" function="internal">
        <lane id=":n02_2_0" index="0" speed="65.00" length="7.85" shape="95.25,98.35 98.05,98.54 100.05,99.12 101.25,100.09 101.65,101.45"/>
    </edge>
    <edge id=":n03_0" function="internal">
        <lane id=":n03_0_0" index="0" speed="65.00" length="7.85" shape="498.35,101.45 498.75,100.09 499.95,99.12 501.95,98.54 504.75,98.35"/>
    </edge>
    <edge id=":n03_1" function="internal">
        <lane id=":n03_1_0" index="0" speed="46.66" length="5.00" shape="501.65,95.25 501.84,96.61 502.42,97.57 503.39,98.16 504.75,98.35"/>
    </edge>
    <edge id=":n03_2" function="internal">
        <lane id=":n03_2_0" index="0" speed="46.66" length="9.50" shape="495.25,98.35 504.75,98.35"/>
    </edge>
    <edge id=":n05_0" function="internal">
        <lane id=":n05_0_0" index="0" speed="65.00" length="2.58" shape="101.65,196.75 101.75,197.45 102.05,197.95 102.55,198.25 103.25,198.35"/>
    </edge>
    <edge id=":n06_0" function="internal">
        <lane id=":n06_0_0" index="0" speed="28.33" length="2.58" shape="98.35,-0.05 98.45,-0.75 98.75,-1.25 99.25,-1.55 99.95,-1.65"/>
    </edge>
    <edge id=":n07_0" function="internal">
        <lane id=":n07_0_0" index="0" speed="65.00" length="2.58" shape="496.75,198.35 497.45,198.25 497.95,197.95 498.25,197.45 498.35,196.75"/>
    </edge>
    <edge id=":n08_0" function="internal">
        <lane id=":n08_0_0" index="0" speed="28.33" length="2.58" shape="500.05,-1.65 500.75,-1.55 501.25,-1.25 501.55,-0.75 501.65,-0.05"/>
    </edge>

    <edge id="01to02" from="n01" to="n02" priority="3" type="road_c">
        <lane id="01to02_0" index="0" speed="65.00" length="95.25" shape="0.00,98.35 95.25,98.35"/>
    </edge>
    <edge id="02to03" from="n02" to="n03" priority="1" type="road_a">
        <lane id="02to03_0" index="0" speed="28.33" length="390.50" shape="104.75,98.35 495.25,98.35"/>
    </edge>
    <edge id="02to05" from="n02" to="n05" priority="3" type="road_c">
        <lane id="02to05_0" index="0" speed="65.00" length="95.30" shape="101.65,101.45 101.65,196.75"/>
    </edge>
    <edge id="02to06" from="n02" to="n06" priority="1" type="road_a">
        <lane id="02to06_0" index="0" speed="28.33" length="95.30" shape="98.35,95.25 98.35,-0.05"/>
    </edge>
    <edge id="03to04" from="n03" to="n04" priority="3" type="road_c">
        <lane id="03to04_0" index="0" speed="65.00" length="95.25" shape="504.75,98.35 600.00,98.35"/>
    </edge>
    <edge id="05to07" from="n05" to="n07" priority="3" type="road_c">
        <lane id="05to07_0" index="0" speed="65.00" length="393.50" shape="103.25,198.35 496.75,198.35"/>
    </edge>
    <edge id="06to08" from="n06" to="n08" priority="1" type="road_a">
        <lane id="06to08_0" index="0" speed="28.33" length="400.10" shape="99.95,-1.65 500.05,-1.65"/>
    </edge>
    <edge id="07to03" from="n07" to="n03" priority="3" type="road_c">
        <lane id="07to03_0" index="0" speed="65.00" length="95.30" shape="498.35,196.75 498.35,101.45"/>
    </edge>
    <edge id="08to03" from="n08" to="n03" priority="1" type="road_a">
        <lane id="08to03_0" index="0" speed="28.33" length="95.30" shape="501.65,-0.05 501.65,95.25"/>
    </edge>

    <junction id="n01" type="unregulated" x="0.00" y="100.00" incLanes="" intLanes="" shape="-0.00,99.95 -0.00,96.75"/>
    <junction id="n02" type="priority" x="100.00" y="100.00" incLanes="01to02_0" intLanes=":n02_0_0 :n02_1_0 :n02_2_0" shape="100.05,101.45 103.25,101.45 104.75,99.95 104.75,96.75 99.95,95.25 96.75,95.25 95.25,96.75 95.25,99.95">
        <request index="0" response="000" foes="000" cont="0"/>
        <request index="1" response="000" foes="000" cont="0"/>
        <request index="2" response="000" foes="000" cont="0"/>
    </junction>
    <junction id="n03" type="priority" x="500.00" y="100.00" incLanes="07to03_0 08to03_0 02to03_0" intLanes=":n03_0_0 :n03_1_0 :n03_2_0" shape="496.75,101.45 499.95,101.45 504.75,99.95 504.75,96.75 503.25,95.25 500.05,95.25 495.25,96.75 495.25,99.95">
        <request index="0" response="010" foes="110" cont="0"/>
        <request index="1" response="000" foes="101" cont="0"/>
        <request index="2" response="011" foes="011" cont="0"/>
    </junction>
    <junction id="n04" type="unregulated" x="600.00" y="100.00" incLanes="03to04_0" intLanes="" shape="600.00,96.75 600.00,99.95"/>
    <junction id="n05" type="priority" x="100.00" y="200.00" incLanes="02to05_0" intLanes=":n05_0_0" shape="103.25,199.95 103.25,196.75 100.05,196.75">
        <request index="0" response="0" foes="0" cont="0"/>
    </junction>
    <junction id="n06" type="priority" x="100.00" y="0.00" incLanes="02to06_0" intLanes=":n06_0_0" shape="96.75,-0.05 99.95,-0.05 99.95,-3.25">
        <request index="0" response="0" foes="0" cont="0"/>
    </junction>
    <junction id="n07" type="priority" x="500.00" y="200.00" incLanes="05to07_0" intLanes=":n07_0_0" shape="499.95,196.75 496.75,196.75 496.75,199.95">
        <request index="0" response="0" foes="0" cont="0"/>
    </junction>
    <junction id="n08" type="priority" x="500.00" y="0.00" incLanes="06to08_0" intLanes=":n08_0_0" shape="500.05,-0.05 503.25,-0.05 500.05,-3.25 500.05,-0.05">
        <request index="0" response="0" foes="0" cont="0"/>
    </junction>

    <connection from="01to02" to="02to06" fromLane="0" toLane="0" via=":n02_0_0" dir="r" state="M"/>
    <connection from="01to02" to="02to03" fromLane="0" toLane="0" via=":n02_1_0" dir="s" state="M"/>
    <connection from="01to02" to="02to05" fromLane="0" toLane="0" via=":n02_2_0" dir="l" state="M"/>
    <connection from="02to03" to="03to04" fromLane="0" toLane="0" via=":n03_2_0" dir="s" state="m"/>
    <connection from="02to05" to="05to07" fromLane="0" toLane="0" via=":n05_0_0" dir="r" state="M"/>
    <connection from="02to06" to="06to08" fromLane="0" toLane="0" via=":n06_0_0" dir="l" state="M"/>
    <connection from="05to07" to="07to03" fromLane="0" toLane="0" via=":n07_0_0" dir="r" state="M"/>
    <connection from="06to08" to="08to03" fromLane="0" toLane="0" via=":n08_0_0" dir="l" state="M"/>
    <connection from="07to03" to="03to04" fromLane="0" toLane="0" via=":n03_0_0" dir="l" state="m"/>
    <connection from="08to03" to="03to04" fromLane="0" toLane="0" via=":n03_1_0" dir="r" state="M"/>

    <connection from=":n02_0" to="02to06" fromLane="0" toLane="0" dir="s" state="M"/>
    <connection from=":n02_1" to="02to03" fromLane="0" toLane="0" dir="s" state="M"/>
    <connection from=":n02_2" to="02to05" fromLane="0" toLane="0" dir="s" state="M"/>
    <connection from=":n03_0" to="03to04" fromLane="0" toLane="0" dir="s" state="M"/>
    <connection from=":n03_1" to="03to04" fromLane="0" toLane="0" dir="s" state="M"/>
    <connection from=":n03_2" to="03to04" fromLane="0" toLane="0" dir="s" state="M"/>
    <connection from=":n05_0" to="05to07" fromLane="0" toLane="0" dir="s" state="M"/>
    <connection from=":n06_0" to="06to08" fromLane="0" toLane="0" dir="s" state="M"/>
    <connection from=":n07_0" to="07to03" fromLane="0" toLane="0" dir="s" state="M"/>
    <connection from=":n08_0" to="08to03" fromLane="0" toLane="0" dir="s" state="M"/>

</net>
