<additional xmlns:xsi="http://www.w3.org/2001/XMLSchema-instance" xsi:noNamespaceSchemaLocation="http://sumo.dlr.de/xsd/additional_file.xsd">
	<vehicle id='emitter_0000' depart='55320' departLane='0' departPos='67.69' departSpeed='7.39873' route='03to04_to_05to08'/>
	<vehicle id='emitter_0001' depart='54000' departLane='0' departPos='67.69' departSpeed='7.39873' route='03to04_to_05to08'/>
	<vehicle id='emitter_0002' depart='54000' departLane='0' departPos='47.66' departSpeed='17.5157' route='02to04_to_09to10'/>
	<vehicle id='emitter_0003' depart='54540' departLane='0' departPos='47.66' departSpeed='17.5157' route='02to04_to_05to08'/>
	<vehicle id='emitter_0004' depart='54000' departLane='0' departPos='67.69' departSpeed='7.39873' route='03to04_to_05to08'/>
	<vehicle id='emitter_0005' depart='54300' departLane='0' departPos='67.69' departSpeed='7.39873' route='03to04_to_09to10'/>
	<vehicle id='emitter_0006' depart='54480' departLane='0' departPos='47.66' departSpeed='17.5157' route='02to04_to_05to08'/>
	<vehicle id='emitter_0007' depart='54000' departLane='0' departPos='47.66' departSpeed='17.5157' route='02to04_to_05to08'/>
	<vehicle id='emitter_0008' depart='55140' departLane='0' departPos='67.69' departSpeed='7.39873' route='03to04_to_05to08'/>
	<vehicle id='emitter_0009' depart='54000' departLane='0' departPos='47.66' departSpeed='17.5157' route='02to04_to_05to07'/>
	<vehicle id='emitter_0010' depart='54240' departLane='0' departPos='47.66' departSpeed='17.5157' route='02to04_to_05to07'/>
	<vehicle id='emitter_0011' depart='54000' departLane='0' departPos='47.66' departSpeed='17.5157' route='02to04_to_05to07'/>
	<vehicle id='emitter_0012' depart='54000' departLane='0' departPos='67.69' departSpeed='7.39873' route='03to04_to_09to10'/>
	<vehicle id='emitter_0013' depart='54960' departLane='0' departPos='47.66' departSpeed='17.5157' route='02to04_to_05to07'/>
	<vehicle id='emitter_0014' depart='54900' departLane='0' departPos='47.66' departSpeed='17.5157' route='02to04_to_05to07'/>
	<vehicle id='emitter_0015' depart='54780' departLane='0' departPos='67.69' departSpeed='7.39873' route='03to04_to_05to08'/>
	<vehicle id='emitter_0016' depart='55140' departLane='0' departPos='47.66' departSpeed='17.5157' route='02to04_to_05to07'/>
	<vehicle id='emitter_0017' depart='54540' departLane='0' departPos='47.66' departSpeed='17.5157' route='02to04_to_05to07'/>
	<vehicle id='emitter_0018' depart='55080' departLane='0' departPos='67.69' departSpeed='7.39873' route='03to04_to_05to08'/>
	<vehicle id='emitter_0019' depart='55080' departLane='0' departPos='47.66' departSpeed='17.5157' route='02to04_to_05to07'/>
	<vehicle id='emitter_0020' depart='54720' departLane='0' departPos='47.66' departSpeed='17.5157' route='02to04_to_05to08'/>
	<vehicle id='emitter_0021' depart='54000' departLane='0' departPos='47.66' departSpeed='17.5157' route='02to04_to_09to10'/>
	<vehicle id='emitter_0022' depart='54000' departLane='0' departPos='47.66' departSpeed='17.5157' route='02to04_to_05to07'/>
	<vehicle id='emitter_0023' depart='54360' departLane='0' departPos='47.66' departSpeed='17.5157' route='02to04_to_05to07'/>
	<vehicle id='emitter_0024' depart='54180' departLane='0' departPos='67.69' departSpeed='7.39873' route='03to04_to_05to07'/>
	<vehicle id='emitter_0025' depart='55260' departLane='0' departPos='47.66' departSpeed='17.5157' route='02to04_to_09to10'/>
	<vehicle id='emitter_0026' depart='54000' departLane='0' departPos='47.66' departSpeed='17.5157' route='02to04_to_09to10'/>
	<vehicle id='emitter_0027' depart='55380' departLane='0' departPos='67.69' departSpeed='7.39873' route='03to04_to_05to08'/>
	<vehicle id='emitter_0028' depart='54480' departLane='0' departPos='47.66' departSpeed='17.5157' route='02to04_to_05to07'/>
	<vehicle id='emitter_0029' depart='54000' departLane='0' departPos='47.66' departSpeed='17.5157' route='02to04_to_05to07'/>
	<vehicle id='emitter_0030' depart='54000' departLane='0' departPos='67.69' departSpeed='7.39873' route='03to04_to_05to08'/>
	<vehicle id='emitter_0031' depart='54060' departLane='0' departPos='67.69' departSpeed='7.39873' route='03to04_to_05to07'/>
	<vehicle id='emitter_0032' depart='54000' departLane='0' departPos='47.66' departSpeed='17.5157' route='02to04_to_05to07'/>
	<vehicle id='emitter_0033' depart='54360' departLane='0' departPos='47.66' departSpeed='17.5157' route='02to04_to_05to07'/>
	<vehicle id='emitter_0034' depart='55380' departLane='0' departPos='47.66' departSpeed='17.5157' route='02to04_to_09to10'/>
	<vehicle id='emitter_0035' depart='54240' departLane='0' departPos='47.66' departSpeed='17.5157' route='02to04_to_09to10'/>
	<vehicle id='emitter_0036' depart='54720' departLane='0' departPos='47.66' departSpeed='17.5157' route='02to04_to_09to10'/>
	<vehicle id='emitter_0037' depart='55380' departLane='0' departPos='47.66' departSpeed='17.5157' route='02to04_to_09to10'/>
	<vehicle id='emitter_0038' depart='54360' departLane='0' departPos='47.66' departSpeed='17.5157' route='02to04_to_05to08'/>
	<vehicle id='emitter_0039' depart='55020' departLane='0' departPos='47.66' departSpeed='17.5157' route='02to04_to_09to10'/>
	<vehicle id='emitter_0040' depart='54360' departLane='0' departPos='47.66' departSpeed='17.5157' route='02to04_to_09to10'/>
	<vehicle id='emitter_0041' depart='55140' departLane='0' departPos='47.66' departSpeed='17.5157' route='02to04_to_05to07'/>
	<vehicle id='emitter_0042' depart='54900' departLane='0' departPos='67.69' departSpeed='7.39873' route='03to04_to_05to07'/>
	<vehicle id='emitter_0043' depart='55380' departLane='0' departPos='47.66' departSpeed='17.5157' route='02to04_to_05to07'/>
	<vehicle id='emitter_0044' depart='54180' departLane='0' departPos='47.66' departSpeed='17.5157' route='02to04_to_09to10'/>
	<vehicle id='emitter_0045' depart='54300' departLane='0' departPos='47.66' departSpeed='17.5157' route='02to04_to_09to10'/>
	<vehicle id='emitter_0046' depart='54180' departLane='0' departPos='47.66' departSpeed='17.5157' route='02to04_to_05to07'/>
	<vehicle id='emitter_0047' depart='55380' departLane='0' departPos='67.69' departSpeed='7.39873' route='03to04_to_05to07'/>
	<vehicle id='emitter_0048' depart='54540' departLane='0' departPos='47.66' departSpeed='17.5157' route='02to04_to_09to10'/>
	<vehicle id='emitter_0049' depart='55260' departLane='0' departPos='47.66' departSpeed='17.5157' route='02to04_to_05to08'/>
	<vehicle id='emitter_0050' depart='55200' departLane='0' departPos='47.66' departSpeed='17.5157' route='02to04_to_09to10'/>
	<vehicle id='emitter_0051' depart='54060' departLane='0' departPos='47.66' departSpeed='17.5157' route='02to04_to_05to07'/>
	<vehicle id='emitter_0052' depart='55380' departLane='0' departPos='67.69' departSpeed='7.39873' route='03to04_to_09to10'/>
	<vehicle id='emitter_0053' depart='54240' departLane='0' departPos='47.66' departSpeed='17.5157' route='02to04_to_05to08'/>
	<vehicle id='emitter_0054' depart='54300' departLane='0' departPos='67.69' departSpeed='7.39873' route='03to04_to_05to07'/>
	<vehicle id='emitter_0055' depart='55020' departLane='0' departPos='67.69' departSpeed='7.39873' route='03to04_to_05to08'/>
	<vehicle id='emitter_0056' depart='54360' departLane='0' departPos='47.66' departSpeed='17.5157' route='02to04_to_05to07'/>
	<vehicle id='emitter_0057' depart='54660' departLane='0' departPos='47.66' departSpeed='17.5157' route='02to04_to_05to07'/>
	<vehicle id='emitter_0058' depart='54720' departLane='0' departPos='47.66' departSpeed='17.5157' route='02to04_to_09to10'/>
	<vehicle id='emitter_0059' depart='54300' departLane='0' departPos='47.66' departSpeed='17.5157' route='02to04_to_05to08'/>
	<vehicle id='emitter_0060' depart='55380' departLane='0' departPos='47.66' departSpeed='17.5157' route='02to04_to_05to07'/>
	<vehicle id='emitter_0061' depart='54900' departLane='0' departPos='47.66' departSpeed='17.5157' route='02to04_to_05to08'/>
	<vehicle id='emitter_0062' depart='54360' departLane='0' departPos='47.66' departSpeed='17.5157' route='02to04_to_05to07'/>
	<vehicle id='emitter_0063' depart='54780' departLane='0' departPos='67.69' departSpeed='7.39873' route='03to04_to_09to10'/>
	<vehicle id='emitter_0064' depart='54300' departLane='0' departPos='47.66' departSpeed='17.5157' route='02to04_to_05to07'/>
	<vehicle id='emitter_0065' depart='55140' departLane='0' departPos='67.69' departSpeed='7.39873' route='03to04_to_05to08'/>
	<vehicle id='emitter_0066' depart='54180' departLane='0' departPos='47.66' departSpeed='17.5157' route='02to04_to_09to10'/>
	<vehicle id='emitter_0067' depart='54960' departLane='0' departPos='47.66' departSpeed='17.5157' route='02to04_to_05to08'/>
	<vehicle id='emitter_0068' depart='54360' departLane='0' departPos='67.69' departSpeed='7.39873' route='03to04_to_05to07'/>
	<vehicle id='emitter_0069' depart='54420' departLane='0' departPos='47.66' departSpeed='17.5157' route='02to04_to_09to10'/>
	<vehicle id='emitter_0070' depart='54660' departLane='0' departPos='47.66' departSpeed='17.5157' route='02to04_to_09to10'/>
	<vehicle id='emitter_0071' depart='54540' departLane='0' departPos='47.66' departSpeed='17.5157' route='02to04_to_05to08'/>
	<vehicle id='emitter_0072' depart='54780' departLane='0' departPos='47.66' departSpeed='17.5157' route='02to04_to_05to08'/>
	<vehicle id='emitter_0073' depart='55200' departLane='0' departPos='47.66' departSpeed='17.5157' route='02to04_to_05to08'/>
	<vehicle id='emitter_0074' depart='54420' departLane='0' departPos='47.66' departSpeed='17.5157' route='02to04_to_09to10'/>
	<vehicle id='emitter_0075' depart='55260' departLane='0' departPos='47.66' departSpeed='17.5157' route='02to04_to_05to08'/>
	<vehicle id='emitter_0076' depart='55260' departLane='0' departPos='47.66' departSpeed='17.5157' route='02to04_to_05to07'/>
	<vehicle id='emitter_0077' depart='54780' departLane='0' departPos='47.66' departSpeed='17.5157' route='02to04_to_05to07'/>
	<vehicle id='emitter_0078' depart='54600' departLane='0' departPos='47.66' departSpeed='17.5157' route='02to04_to_09to10'/>
	<vehicle id='emitter_0079' depart='55440' departLane='0' departPos='47.66' departSpeed='17.5157' route='02to04_to_09to10'/>
	<vehicle id='emitter_0080' depart='55500' departLane='0' departPos='67.69' departSpeed='7.39873' route='03to04_to_05to07'/>
	<vehicle id='emitter_0081' depart='54300' departLane='0' departPos='67.69' departSpeed='7.39873' route='03to04_to_09to10'/>
	<vehicle id='emitter_0082' depart='55020' departLane='0' departPos='67.69' departSpeed='7.39873' route='03to04_to_05to07'/>
	<vehicle id='emitter_0083' depart='54900' departLane='0' departPos='67.69' departSpeed='7.39873' route='03to04_to_09to10'/>
	<vehicle id='emitter_0084' depart='55380' departLane='0' departPos='47.66' departSpeed='17.5157' route='02to04_to_09to10'/>
	<vehicle id='emitter_0085' depart='54360' departLane='0' departPos='47.66' departSpeed='17.5157' route='02to04_to_05to07'/>
	<vehicle id='emitter_0086' depart='54180' departLane='0' departPos='47.66' departSpeed='17.5157' route='02to04_to_05to07'/>
	<vehicle id='emitter_0087' depart='54300' departLane='0' departPos='47.66' departSpeed='17.5157' route='02to04_to_05to07'/>
	<vehicle id='emitter_0088' depart='55080' departLane='0' departPos='47.66' departSpeed='17.5157' route='02to04_to_05to07'/>
	<vehicle id='emitter_0089' depart='54720' departLane='0' departPos='47.66' departSpeed='17.5157' route='02to04_to_05to07'/>
	<vehicle id='emitter_0090' depart='54900' departLane='0' departPos='47.66' departSpeed='17.5157' route='02to04_to_05to08'/>
	<vehicle id='emitter_0091' depart='54000' departLane='0' departPos='67.69' departSpeed='7.39873' route='03to04_to_05to07'/>
	<vehicle id='emitter_0092' depart='55080' departLane='0' departPos='47.66' departSpeed='17.5157' route='02to04_to_09to10'/>
	<vehicle id='emitter_0093' depart='54840' departLane='0' departPos='47.66' departSpeed='17.5157' route='02to04_to_05to08'/>
	<vehicle id='emitter_0094' depart='55080' departLane='0' departPos='47.66' departSpeed='17.5157' route='02to04_to_09to10'/>
	<vehicle id='emitter_0095' depart='55380' departLane='0' departPos='47.66' departSpeed='17.5157' route='02to04_to_09to10'/>
	<vehicle id='emitter_0096' depart='55560' departLane='0' departPos='47.66' departSpeed='17.5157' route='02to04_to_05to08'/>
	<vehicle id='emitter_0097' depart='55320' departLane='0' departPos='47.66' departSpeed='17.5157' route='02to04_to_05to07'/>
	<vehicle id='emitter_0098' depart='55500' departLane='0' departPos='47.66' departSpeed='17.5157' route='02to04_to_05to07'/>
	<vehicle id='emitter_0099' depart='55020' departLane='0' departPos='47.66' departSpeed='17.5157' route='02to04_to_05to08'/>
	<vehicle id='emitter_0100' depart='55320' departLane='0' departPos='47.66' departSpeed='17.4117' route='07to05_to_11to12'/>
	<vehicle id='emitter_0101' depart='54300' departLane='0' departPos='67.69' departSpeed='7.3869' route='06to05_to_11to12'/>
	<vehicle id='emitter_0102' depart='54420' departLane='0' departPos='47.66' departSpeed='17.4117' route='07to05_to_11to12'/>
	<vehicle id='emitter_0103' depart='55320' departLane='0' departPos='47.66' departSpeed='17.4117' route='07to05_to_04to01'/>
	<vehicle id='emitter_0104' depart='54600' departLane='0' departPos='47.66' departSpeed='17.4117' route='07to05_to_11to12'/>
	<vehicle id='emitter_0105' depart='55140' departLane='0' departPos='47.66' departSpeed='17.4117' route='07to05_to_11to12'/>
	<vehicle id='emitter_0106' depart='54360' departLane='0' departPos='47.66' departSpeed='17.4117' route='07to05_to_04to02'/>
	<vehicle id='emitter_0107' depart='55500' departLane='0' departPos='67.69' departSpeed='7.3869' route='06to05_to_04to01'/>
	<vehicle id='emitter_0108' depart='55380' departLane='0' departPos='47.66' departSpeed='17.4117' route='07to05_to_11to12'/>
	<vehicle id='emitter_0109' depart='55080' departLane='0' departPos='47.66' departSpeed='17.4117' route='07to05_to_04to01'/>
	<vehicle id='emitter_0110' depart='54120' departLane='0' departPos='67.69' departSpeed='7.3869' route='06to05_to_11to12'/>
	<vehicle id='emitter_0111' depart='54480' departLane='0' departPos='67.69' departSpeed='7.3869' route='06to05_to_04to02'/>
	<vehicle id='emitter_0112' depart='55380' departLane='0' departPos='47.66' departSpeed='17.4117' route='07to05_to_04to01'/>
	<vehicle id='emitter_0113' depart='54240' departLane='0' departPos='47.66' departSpeed='17.4117' route='07to05_to_11to12'/>
	<vehicle id='emitter_0114' depart='54300' departLane='0' departPos='47.66' departSpeed='17.4117' route='07to05_to_04to01'/>
	<vehicle id='emitter_0115' depart='54660' departLane='0' departPos='47.66' departSpeed='17.4117' route='07to05_to_04to01'/>
	<vehicle id='emitter_0116' depart='55500' departLane='0' departPos='47.66' departSpeed='17.4117' route='07to05_to_04to02'/>
	<vehicle id='emitter_0117' depart='54660' departLane='0' departPos='47.66' departSpeed='17.4117' route='07to05_to_04to01'/>
	<vehicle id='emitter_0118' depart='54840' departLane='0' departPos='67.69' departSpeed='7.3869' route='06to05_to_11to12'/>
	<vehicle id='emitter_0119' depart='54840' departLane='0' departPos='47.66' departSpeed='17.4117' route='07to05_to_04to02'/>
	<vehicle id='emitter_0120' depart='54840' departLane='0' departPos='47.66' departSpeed='17.4117' route='07to05_to_11to12'/>
	<vehicle id='emitter_0121' depart='54840' departLane='0' departPos='47.66' departSpeed='17.4117' route='07to05_to_04to02'/>
	<vehicle id='emitter_0122' depart='54660' departLane='0' departPos='47.66' departSpeed='17.4117' route='07to05_to_04to01'/>
	<vehicle id='emitter_0123' depart='54900' departLane='0' departPos='47.66' departSpeed='17.4117' route='07to05_to_04to02'/>
	<vehicle id='emitter_0124' depart='54360' departLane='0' departPos='47.66' departSpeed='17.4117' route='07to05_to_04to02'/>
	<vehicle id='emitter_0125' depart='54360' departLane='0' departPos='47.66' departSpeed='17.4117' route='07to05_to_04to01'/>
	<vehicle id='emitter_0126' depart='54180' departLane='0' departPos='47.66' departSpeed='17.4117' route='07to05_to_04to02'/>
	<vehicle id='emitter_0127' depart='54840' departLane='0' departPos='67.69' departSpeed='7.3869' route='06to05_to_11to12'/>
	<vehicle id='emitter_0128' depart='54300' departLane='0' departPos='67.69' departSpeed='7.3869' route='06to05_to_11to12'/>
	<vehicle id='emitter_0129' depart='54420' departLane='0' departPos='47.66' departSpeed='17.4117' route='07to05_to_04to02'/>
	<vehicle id='emitter_0130' depart='54480' departLane='0' departPos='47.66' departSpeed='17.4117' route='07to05_to_04to02'/>
	<vehicle id='emitter_0131' depart='54300' departLane='0' departPos='47.66' departSpeed='17.4117' route='07to05_to_04to02'/>
	<vehicle id='emitter_0132' depart='54960' departLane='0' departPos='47.66' departSpeed='17.4117' route='07to05_to_11to12'/>
	<vehicle id='emitter_0133' depart='54060' departLane='0' departPos='47.66' departSpeed='17.4117' route='07to05_to_04to01'/>
	<vehicle id='emitter_0134' depart='54060' departLane='0' departPos='67.69' departSpeed='7.3869' route='06to05_to_04to01'/>
	<vehicle id='emitter_0135' depart='54240' departLane='0' departPos='47.66' departSpeed='17.4117' route='07to05_to_04to01'/>
	<vehicle id='emitter_0136' depart='54720' departLane='0' departPos='47.66' departSpeed='17.4117' route='07to05_to_04to02'/>
	<vehicle id='emitter_0137' depart='54840' departLane='0' departPos='47.66' departSpeed='17.4117' route='07to05_to_11to12'/>
	<vehicle id='emitter_0138' depart='54060' departLane='0' departPos='47.66' departSpeed='17.4117' route='07to05_to_11to12'/>
	<vehicle id='emitter_0139' depart='54840' departLane='0' departPos='67.69' departSpeed='7.3869' route='06to05_to_11to12'/>
	<vehicle id='emitter_0140' depart='54240' departLane='0' departPos='47.66' departSpeed='17.4117' route='07to05_to_11to12'/>
	<vehicle id='emitter_0141' depart='54960' departLane='0' departPos='67.69' departSpeed='7.3869' route='06to05_to_04to02'/>
	<vehicle id='emitter_0142' depart='55560' departLane='0' departPos='47.66' departSpeed='17.4117' route='07to05_to_11to12'/>
	<vehicle id='emitter_0143' depart='54660' departLane='0' departPos='47.66' departSpeed='17.4117' route='07to05_to_11to12'/>
	<vehicle id='emitter_0144' depart='54000' departLane='0' departPos='47.66' departSpeed='17.4117' route='07to05_to_11to12'/>
	<vehicle id='emitter_0145' depart='55560' departLane='0' departPos='47.66' departSpeed='17.4117' route='07to05_to_04to02'/>
	<vehicle id='emitter_0146' depart='54660' departLane='0' departPos='47.66' departSpeed='17.4117' route='07to05_to_04to02'/>
	<vehicle id='emitter_0147' depart='54660' departLane='0' departPos='47.66' departSpeed='17.4117' route='07to05_to_04to01'/>
	<vehicle id='emitter_0148' depart='55260' departLane='0' departPos='47.66' departSpeed='17.4117' route='07to05_to_04to02'/>
	<vehicle id='emitter_0149' depart='54300' departLane='0' departPos='47.66' departSpeed='17.4117' route='07to05_to_11to12'/>
	<vehicle id='emitter_0150' depart='55560' departLane='0' departPos='47.66' departSpeed='17.4117' route='07to05_to_04to01'/>
	<vehicle id='emitter_0151' depart='54420' departLane='0' departPos='47.66' departSpeed='17.4117' route='07to05_to_04to02'/>
	<vehicle id='emitter_0152' depart='55320' departLane='0' departPos='47.66' departSpeed='17.4117' route='07to05_to_11to12'/>
	<vehicle id='emitter_0153' depart='54720' departLane='0' departPos='47.66' departSpeed='17.4117' route='07to05_to_11to12'/>
	<vehicle id='emitter_0154' depart='54240' departLane='0' departPos='67.69' departSpeed='7.3869' route='06to05_to_11to12'/>
	<vehicle id='emitter_0155' depart='54240' departLane='0' departPos='47.66' departSpeed='17.4117' route='07to05_to_04to02'/>
	<vehicle id='emitter_0156' depart='54060' departLane='0' departPos='67.69' departSpeed='7.3869' route='06to05_to_11to12'/>
	<vehicle id='emitter_0157' depart='54600' departLane='0' departPos='47.66' departSpeed='17.4117' route='07to05_to_11to12'/>
	<vehicle id='emitter_0158' depart='55320' departLane='0' departPos='47.66' departSpeed='17.4117' route='07to05_to_11to12'/>
	<vehicle id='emitter_0159' depart='54120' departLane='0' departPos='47.66' departSpeed='17.4117' route='07to05_to_11to12'/>
	<vehicle id='emitter_0160' depart='55020' departLane='0' departPos='47.66' departSpeed='17.4117' route='07to05_to_11to12'/>
	<vehicle id='emitter_0161' depart='54960' departLane='0' departPos='47.66' departSpeed='17.4117' route='07to05_to_04to02'/>
	<vehicle id='emitter_0162' depart='55260' departLane='0' departPos='47.66' departSpeed='17.4117' route='07to05_to_11to12'/>
	<vehicle id='emitter_0163' depart='54300' departLane='0' departPos='47.66' departSpeed='17.4117' route='07to05_to_04to01'/>
	<vehicle id='emitter_0164' depart='54660' departLane='0' departPos='47.66' departSpeed='17.4117' route='07to05_to_04to02'/>
	<vehicle id='emitter_0165' depart='55260' departLane='0' departPos='47.66' departSpeed='17.4117' route='07to05_to_04to02'/>
	<vehicle id='emitter_0166' depart='55440' departLane='0' departPos='47.66' departSpeed='17.4117' route='07to05_to_04to01'/>
	<vehicle id='emitter_0167' depart='55200' departLane='0' departPos='47.66' departSpeed='17.4117' route='07to05_to_04to01'/>
	<vehicle id='emitter_0168' depart='54360' departLane='0' departPos='47.66' departSpeed='17.4117' route='07to05_to_04to02'/>
	<vehicle id='emitter_0169' depart='54540' departLane='0' departPos='47.66' departSpeed='17.4117' route='07to05_to_11to12'/>
	<vehicle id='emitter_0170' depart='54660' departLane='0' departPos='47.66' departSpeed='17.4117' route='07to05_to_11to12'/>
	<vehicle id='emitter_0171' depart='54360' departLane='0' departPos='47.66' departSpeed='17.4117' route='07to05_to_04to02'/>
	<vehicle id='emitter_0172' depart='54840' departLane='0' departPos='47.66' departSpeed='17.4117' route='07to05_to_04to02'/>
	<vehicle id='emitter_0173' depart='54300' departLane='0' departPos='47.66' departSpeed='17.4117' route='07to05_to_04to01'/>
	<vehicle id='emitter_0174' depart='54960' departLane='0' departPos='47.66' departSpeed='17.4117' route='07to05_to_11to12'/>
	<vehicle id='emitter_0175' depart='54780' departLane='0' departPos='67.69' departSpeed='7.3869' route='06to05_to_04to02'/>
	<vehicle id='emitter_0176' depart='54420' departLane='0' departPos='67.69' departSpeed='7.3869' route='06to05_to_04to01'/>
	<vehicle id='emitter_0177' depart='54000' departLane='0' departPos='47.66' departSpeed='17.4117' route='07to05_to_04to02'/>
	<vehicle id='emitter_0178' depart='54660' departLane='0' departPos='47.66' departSpeed='17.4117' route='07to05_to_04to02'/>
	<vehicle id='emitter_0179' depart='54660' departLane='0' departPos='47.66' departSpeed='17.4117' route='07to05_to_04to01'/>
	<vehicle id='emitter_0180' depart='55200' departLane='0' departPos='47.66' departSpeed='17.4117' route='07to05_to_04to02'/>
	<vehicle id='emitter_0181' depart='54240' departLane='0' departPos='47.66' departSpeed='17.4117' route='07to05_to_11to12'/>
	<vehicle id='emitter_0182' depart='54960' departLane='0' departPos='47.66' departSpeed='17.4117' route='07to05_to_04to02'/>
	<vehicle id='emitter_0183' depart='54120' departLane='0' departPos='47.66' departSpeed='17.4117' route='07to05_to_04to02'/>
	<vehicle id='emitter_0184' depart='54180' departLane='0' departPos='67.69' departSpeed='7.3869' route='06to05_to_04to02'/>
	<vehicle id='emitter_0185' depart='54720' departLane='0' departPos='67.69' departSpeed='7.3869' route='06to05_to_04to02'/>
	<vehicle id='emitter_0186' depart='55140' departLane='0' departPos='47.66' departSpeed='17.4117' route='07to05_to_04to01'/>
	<vehicle id='emitter_0187' depart='54600' departLane='0' departPos='67.69' departSpeed='7.3869' route='06to05_to_04to02'/>
	<vehicle id='emitter_0188' depart='54900' departLane='0' departPos='67.69' departSpeed='7.3869' route='06to05_to_04to02'/>
	<vehicle id='emitter_0189' depart='54960' departLane='0' departPos='67.69' departSpeed='7.3869' route='06to05_to_04to02'/>
	<vehicle id='emitter_0190' depart='54840' departLane='0' departPos='67.69' departSpeed='7.3869' route='06to05_to_04to01'/>
	<vehicle id='emitter_0191' depart='55440' departLane='0' departPos='67.69' departSpeed='7.3869' route='06to05_to_04to01'/>
	<vehicle id='emitter_0192' depart='55320' departLane='0' departPos='47.66' departSpeed='17.4117' route='07to05_to_11to12'/>
	<vehicle id='emitter_0193' depart='55140' departLane='0' departPos='47.66' departSpeed='17.4117' route='07to05_to_04to01'/>
	<vehicle id='emitter_0194' depart='54240' departLane='0' departPos='47.66' departSpeed='17.4117' route='07to05_to_04to01'/>
	<vehicle id='emitter_0195' depart='54600' departLane='0' departPos='47.66' departSpeed='17.4117' route='07to05_to_11to12'/>
	<vehicle id='emitter_0196' depart='54300' departLane='0' departPos='47.66' departSpeed='17.4117' route='07to05_to_04to01'/>
	<vehicle id='emitter_0197' depart='54120' departLane='0' departPos='47.66' departSpeed='17.4117' route='07to05_to_11to12'/>
	<vehicle id='emitter_0198' depart='55380' departLane='0' departPos='47.66' departSpeed='17.4117' route='07to05_to_04to02'/>
	<vehicle id='emitter_0199' depart='55320' departLane='0' departPos='67.69' departSpeed='7.3869' route='06to05_to_11to12'/>
</additional>
