<additional xmlns:xsi="http://www.w3.org/2001/XMLSchema-instance" xsi:noNamespaceSchemaLocation="http://sumo.dlr.de/xsd/additional_file.xsd">
	<inductionLoop id="loop_02to04_0" lane="02to04_0" pos="47.66" freq="10" file="__gar_loop_measurements.xml"/>
	<inductionLoop id="loop_03to04_0" lane="03to04_0" pos="67.69" freq="10" file="__gar_loop_measurements.xml"/>
	<inductionLoop id="loop_04to01_0" lane="04to01_0" pos="67.69" freq="10" file="__gar_loop_measurements.xml"/>
	<inductionLoop id="loop_04to02_0" lane="04to02_0" pos="47.66" freq="10" file="__gar_loop_measurements.xml"/>
	<inductionLoop id="loop_04to09_0" lane="04to09_0" pos="97.155" freq="10" file="__gar_loop_measurements.xml"/>
	<inductionLoop id="loop_05to07_0" lane="05to07_0" pos="47.66" freq="10" file="__gar_loop_measurements.xml"/>
	<inductionLoop id="loop_05to08_0" lane="05to08_0" pos="67.69" freq="10" file="__gar_loop_measurements.xml"/>
	<inductionLoop id="loop_05to11_0" lane="05to11_0" pos="97.155" freq="10" file="__gar_loop_measurements.xml"/>
	<inductionLoop id="loop_06to05_0" lane="06to05_0" pos="67.69" freq="10" file="__gar_loop_measurements.xml"/>
	<inductionLoop id="loop_07to05_0" lane="07to05_0" pos="47.66" freq="10" file="__gar_loop_measurements.xml"/>
	<inductionLoop id="loop_09to05_0" lane="09to05_0" pos="46.235" freq="10" file="__gar_loop_measurements.xml"/>
	<inductionLoop id="loop_09to10_0" lane="09to10_0" pos="67.69" freq="10" file="__gar_loop_measurements.xml"/>
	<inductionLoop id="loop_11to04_0" lane="11to04_0" pos="46.235" freq="10" file="__gar_loop_measurements.xml"/>
	<inductionLoop id="loop_11to12_0" lane="11to12_0" pos="67.69" freq="10" file="__gar_loop_measurements.xml"/>
</additional>
