<?xml version="1.0" encoding="UTF-8"?>
<routes xmlns:xsi="http://www.w3.org/2001/XMLSchema-instance" xsi:noNamespaceSchemaLocation="http://sumo.dlr.de/xsd/routes_file.xsd">
    <vType id="pass"  vClass="passenger" length="4.00" minGap="5.0"  maxSpeed="120.0" speedFactor="1.1" speedDev="0.1"/>
    <vType id="cycle" vClass="bicycle" accel="0.5" decel="0.5" length="1.50" minGap="1.0"  maxSpeed="5.0"  sigma="0" guiShape="bicycle"/>
    <vType id="bus"   vClass="bus"     accel="2.5" decel="2.5" length="15.0" minGap="20.0" maxSpeed="40.0" sigma="0" guiShape="bus"/>
</routes>
