<?xml version="1.0" encoding="UTF-8"?>

<!-- generated on Tue Sep 22 06:40:30 2015 by SUMO duarouter Version 0.22.0
<?xml version="1.0" encoding="UTF-8"?>

<configuration xmlns:xsi="http://www.w3.org/2001/XMLSchema-instance" xsi:noNamespaceSchemaLocation="http://sumo.dlr.de/xsd/duarouterConfiguration.xsd">

    <input>
        <net-file value="/Users/ctomas/RTGAR/python/testgar/src/../data/__case_1.net.xml"/>
        <additional-files value="/Users/ctomas/RTGAR/python/testgar/src/../data/case_1.vtyp.rou.xml"/>
        <trip-files value="/Users/ctomas/RTGAR/python/testgar/src/../data/__trips.trip.xml"/>
    </input>

    <output>
        <output-file value="/Users/ctomas/RTGAR/python/testgar/src/../data/__routes.rou.xml"/>
    </output>

    <processing>
        <ignore-errors value="true"/>
        <routing-algorithm value="astar"/>
    </processing>

    <report>
        <verbose value="true"/>
    </report>

</configuration>
-->

<routes xmlns:xsi="http://www.w3.org/2001/XMLSchema-instance" xsi:noNamespaceSchemaLocation="http://sumo.dlr.de/xsd/routes_file.xsd">
    <vType id="pass" length="4.00" minGap="5.00" maxSpeed="120.00" speedFactor="1.10" speedDev="0.10" vClass="passenger"/>
    <vehicle id="0" type="pass" depart="54006.00" departLane="free" departSpeed="max" fromTaz="TAZ1" toTaz="TAZ2">
        <route edges="01to02 02to05 05to07 07to03 03to04"/>
    </vehicle>
    <vehicle id="50" type="pass" depart="54006.00" departLane="free" departSpeed="max" fromTaz="TAZ2" toTaz="TAZ1">
        <route edges="04to03 03to02 02to01"/>
    </vehicle>
    <vehicle id="1" type="pass" depart="54018.00" departLane="free" departSpeed="max" fromTaz="TAZ1" toTaz="TAZ2">
        <route edges="01to02 02to06 06to08 08to03 03to04"/>
    </vehicle>
    <vehicle id="51" type="pass" depart="54018.00" departLane="free" departSpeed="max" fromTaz="TAZ2" toTaz="TAZ1">
        <route edges="04to03 03to08 08to06 06to02 02to01"/>
    </vehicle>
    <vehicle id="2" type="pass" depart="54030.00" departLane="free" departSpeed="max" fromTaz="TAZ1" toTaz="TAZ2">
        <route edges="01to02 02to06 06to08 08to03 03to04"/>
    </vehicle>
    <vehicle id="52" type="pass" depart="54030.00" departLane="free" departSpeed="max" fromTaz="TAZ2" toTaz="TAZ1">
        <route edges="04to03 03to07 07to05 05to02 02to01"/>
    </vehicle>
    <vehicle id="3" type="pass" depart="54042.00" departLane="free" departSpeed="max" fromTaz="TAZ1" toTaz="TAZ2">
        <route edges="01to02 02to03 03to04"/>
    </vehicle>
    <vehicle id="53" type="pass" depart="54042.00" departLane="free" departSpeed="max" fromTaz="TAZ2" toTaz="TAZ1">
        <route edges="04to03 03to02 02to01"/>
    </vehicle>
    <vehicle id="4" type="pass" depart="54054.00" departLane="free" departSpeed="max" fromTaz="TAZ1" toTaz="TAZ2">
        <route edges="01to02 02to05 05to07 07to03 03to04"/>
    </vehicle>
    <vehicle id="54" type="pass" depart="54054.00" departLane="free" departSpeed="max" fromTaz="TAZ2" toTaz="TAZ1">
        <route edges="04to03 03to07 07to05 05to02 02to01"/>
    </vehicle>
    <vehicle id="5" type="pass" depart="54066.00" departLane="free" departSpeed="max" fromTaz="TAZ1" toTaz="TAZ2">
        <route edges="01to02 02to05 05to07 07to03 03to04"/>
    </vehicle>
    <vehicle id="55" type="pass" depart="54066.00" departLane="free" departSpeed="max" fromTaz="TAZ2" toTaz="TAZ1">
        <route edges="04to03 03to08 08to06 06to02 02to01"/>
    </vehicle>
    <vehicle id="56" type="pass" depart="54078.00" departLane="free" departSpeed="max" fromTaz="TAZ2" toTaz="TAZ1">
        <route edges="04to03 03to02 02to01"/>
    </vehicle>
    <vehicle id="6" type="pass" depart="54078.00" departLane="free" departSpeed="max" fromTaz="TAZ1" toTaz="TAZ2">
        <route edges="01to02 02to03 03to04"/>
    </vehicle>
    <vehicle id="57" type="pass" depart="54090.00" departLane="free" departSpeed="max" fromTaz="TAZ2" toTaz="TAZ1">
        <route edges="04to03 03to07 07to05 05to02 02to01"/>
    </vehicle>
    <vehicle id="7" type="pass" depart="54090.00" departLane="free" departSpeed="max" fromTaz="TAZ1" toTaz="TAZ2">
        <route edges="01to02 02to06 06to08 08to03 03to04"/>
    </vehicle>
    <vehicle id="58" type="pass" depart="54102.00" departLane="free" departSpeed="max" fromTaz="TAZ2" toTaz="TAZ1">
        <route edges="04to03 03to07 07to05 05to02 02to01"/>
    </vehicle>
    <vehicle id="8" type="pass" depart="54102.00" departLane="free" departSpeed="max" fromTaz="TAZ1" toTaz="TAZ2">
        <route edges="01to02 02to05 05to07 07to03 03to04"/>
    </vehicle>
    <vehicle id="59" type="pass" depart="54114.00" departLane="free" departSpeed="max" fromTaz="TAZ2" toTaz="TAZ1">
        <route edges="04to03 03to08 08to06 06to02 02to01"/>
    </vehicle>
    <vehicle id="9" type="pass" depart="54114.00" departLane="free" departSpeed="max" fromTaz="TAZ1" toTaz="TAZ2">
        <route edges="01to02 02to03 03to04"/>
    </vehicle>
    <vehicle id="10" type="pass" depart="54126.00" departLane="free" departSpeed="max" fromTaz="TAZ1" toTaz="TAZ2">
        <route edges="01to02 02to06 06to08 08to03 03to04"/>
    </vehicle>
    <vehicle id="60" type="pass" depart="54126.00" departLane="free" departSpeed="max" fromTaz="TAZ2" toTaz="TAZ1">
        <route edges="04to03 03to02 02to01"/>
    </vehicle>
    <vehicle id="11" type="pass" depart="54138.00" departLane="free" departSpeed="max" fromTaz="TAZ1" toTaz="TAZ2">
        <route edges="01to02 02to05 05to07 07to03 03to04"/>
    </vehicle>
    <vehicle id="61" type="pass" depart="54138.00" departLane="free" departSpeed="max" fromTaz="TAZ2" toTaz="TAZ1">
        <route edges="04to03 03to02 02to01"/>
    </vehicle>
    <vehicle id="12" type="pass" depart="54150.00" departLane="free" departSpeed="max" fromTaz="TAZ1" toTaz="TAZ2">
        <route edges="01to02 02to05 05to07 07to03 03to04"/>
    </vehicle>
    <vehicle id="62" type="pass" depart="54150.00" departLane="free" departSpeed="max" fromTaz="TAZ2" toTaz="TAZ1">
        <route edges="04to03 03to08 08to06 06to02 02to01"/>
    </vehicle>
    <vehicle id="13" type="pass" depart="54162.00" departLane="free" departSpeed="max" fromTaz="TAZ1" toTaz="TAZ2">
        <route edges="01to02 02to03 03to04"/>
    </vehicle>
    <vehicle id="63" type="pass" depart="54162.00" departLane="free" departSpeed="max" fromTaz="TAZ2" toTaz="TAZ1">
        <route edges="04to03 03to07 07to05 05to02 02to01"/>
    </vehicle>
    <vehicle id="14" type="pass" depart="54174.00" departLane="free" departSpeed="max" fromTaz="TAZ1" toTaz="TAZ2">
        <route edges="01to02 02to06 06to08 08to03 03to04"/>
    </vehicle>
    <vehicle id="64" type="pass" depart="54174.00" departLane="free" departSpeed="max" fromTaz="TAZ2" toTaz="TAZ1">
        <route edges="04to03 03to02 02to01"/>
    </vehicle>
    <vehicle id="15" type="pass" depart="54186.00" departLane="free" departSpeed="max" fromTaz="TAZ1" toTaz="TAZ2">
        <route edges="01to02 02to05 05to07 07to03 03to04"/>
    </vehicle>
    <vehicle id="65" type="pass" depart="54186.00" departLane="free" departSpeed="max" fromTaz="TAZ2" toTaz="TAZ1">
        <route edges="04to03 03to07 07to05 05to02 02to01"/>
    </vehicle>
    <vehicle id="16" type="pass" depart="54198.00" departLane="free" departSpeed="max" fromTaz="TAZ1" toTaz="TAZ2">
        <route edges="01to02 02to03 03to04"/>
    </vehicle>
    <vehicle id="66" type="pass" depart="54198.00" departLane="free" departSpeed="max" fromTaz="TAZ2" toTaz="TAZ1">
        <route edges="04to03 03to07 07to05 05to02 02to01"/>
    </vehicle>
    <vehicle id="17" type="pass" depart="54210.00" departLane="free" departSpeed="max" fromTaz="TAZ1" toTaz="TAZ2">
        <route edges="01to02 02to05 05to07 07to03 03to04"/>
    </vehicle>
    <vehicle id="67" type="pass" depart="54210.00" departLane="free" departSpeed="max" fromTaz="TAZ2" toTaz="TAZ1">
        <route edges="04to03 03to02 02to01"/>
    </vehicle>
    <vehicle id="18" type="pass" depart="54222.00" departLane="free" departSpeed="max" fromTaz="TAZ1" toTaz="TAZ2">
        <route edges="01to02 02to03 03to04"/>
    </vehicle>
    <vehicle id="68" type="pass" depart="54222.00" departLane="free" departSpeed="max" fromTaz="TAZ2" toTaz="TAZ1">
        <route edges="04to03 03to02 02to01"/>
    </vehicle>
    <vehicle id="19" type="pass" depart="54234.00" departLane="free" departSpeed="max" fromTaz="TAZ1" toTaz="TAZ2">
        <route edges="01to02 02to03 03to04"/>
    </vehicle>
    <vehicle id="69" type="pass" depart="54234.00" departLane="free" departSpeed="max" fromTaz="TAZ2" toTaz="TAZ1">
        <route edges="04to03 03to07 07to05 05to02 02to01"/>
    </vehicle>
    <vehicle id="20" type="pass" depart="54246.00" departLane="free" departSpeed="max" fromTaz="TAZ1" toTaz="TAZ2">
        <route edges="01to02 02to05 05to07 07to03 03to04"/>
    </vehicle>
    <vehicle id="70" type="pass" depart="54246.00" departLane="free" departSpeed="max" fromTaz="TAZ2" toTaz="TAZ1">
        <route edges="04to03 03to08 08to06 06to02 02to01"/>
    </vehicle>
    <vehicle id="21" type="pass" depart="54258.00" departLane="free" departSpeed="max" fromTaz="TAZ1" toTaz="TAZ2">
        <route edges="01to02 02to06 06to08 08to03 03to04"/>
    </vehicle>
    <vehicle id="71" type="pass" depart="54258.00" departLane="free" departSpeed="max" fromTaz="TAZ2" toTaz="TAZ1">
        <route edges="04to03 03to07 07to05 05to02 02to01"/>
    </vehicle>
    <vehicle id="22" type="pass" depart="54270.00" departLane="free" departSpeed="max" fromTaz="TAZ1" toTaz="TAZ2">
        <route edges="01to02 02to05 05to07 07to03 03to04"/>
    </vehicle>
    <vehicle id="72" type="pass" depart="54270.00" departLane="free" departSpeed="max" fromTaz="TAZ2" toTaz="TAZ1">
        <route edges="04to03 03to02 02to01"/>
    </vehicle>
    <vehicle id="23" type="pass" depart="54282.00" departLane="free" departSpeed="max" fromTaz="TAZ1" toTaz="TAZ2">
        <route edges="01to02 02to05 05to07 07to03 03to04"/>
    </vehicle>
    <vehicle id="73" type="pass" depart="54282.00" departLane="free" departSpeed="max" fromTaz="TAZ2" toTaz="TAZ1">
        <route edges="04to03 03to07 07to05 05to02 02to01"/>
    </vehicle>
    <vehicle id="24" type="pass" depart="54294.00" departLane="free" departSpeed="max" fromTaz="TAZ1" toTaz="TAZ2">
        <route edges="01to02 02to03 03to04"/>
    </vehicle>
    <vehicle id="74" type="pass" depart="54294.00" departLane="free" departSpeed="max" fromTaz="TAZ2" toTaz="TAZ1">
        <route edges="04to03 03to08 08to06 06to02 02to01"/>
    </vehicle>
    <vehicle id="25" type="pass" depart="54306.00" departLane="free" departSpeed="max" fromTaz="TAZ1" toTaz="TAZ2">
        <route edges="01to02 02to05 05to07 07to03 03to04"/>
    </vehicle>
    <vehicle id="75" type="pass" depart="54306.00" departLane="free" departSpeed="max" fromTaz="TAZ2" toTaz="TAZ1">
        <route edges="04to03 03to07 07to05 05to02 02to01"/>
    </vehicle>
    <vehicle id="26" type="pass" depart="54318.00" departLane="free" departSpeed="max" fromTaz="TAZ1" toTaz="TAZ2">
        <route edges="01to02 02to06 06to08 08to03 03to04"/>
    </vehicle>
    <vehicle id="76" type="pass" depart="54318.00" departLane="free" departSpeed="max" fromTaz="TAZ2" toTaz="TAZ1">
        <route edges="04to03 03to07 07to05 05to02 02to01"/>
    </vehicle>
    <vehicle id="27" type="pass" depart="54330.00" departLane="free" departSpeed="max" fromTaz="TAZ1" toTaz="TAZ2">
        <route edges="01to02 02to05 05to07 07to03 03to04"/>
    </vehicle>
    <vehicle id="77" type="pass" depart="54330.00" departLane="free" departSpeed="max" fromTaz="TAZ2" toTaz="TAZ1">
        <route edges="04to03 03to02 02to01"/>
    </vehicle>
    <vehicle id="28" type="pass" depart="54342.00" departLane="free" departSpeed="max" fromTaz="TAZ1" toTaz="TAZ2">
        <route edges="01to02 02to05 05to07 07to03 03to04"/>
    </vehicle>
    <vehicle id="78" type="pass" depart="54342.00" departLane="free" departSpeed="max" fromTaz="TAZ2" toTaz="TAZ1">
        <route edges="04to03 03to02 02to01"/>
    </vehicle>
    <vehicle id="29" type="pass" depart="54354.00" departLane="free" departSpeed="max" fromTaz="TAZ1" toTaz="TAZ2">
        <route edges="01to02 02to03 03to04"/>
    </vehicle>
    <vehicle id="79" type="pass" depart="54354.00" departLane="free" departSpeed="max" fromTaz="TAZ2" toTaz="TAZ1">
        <route edges="04to03 03to02 02to01"/>
    </vehicle>
    <vehicle id="30" type="pass" depart="54366.00" departLane="free" departSpeed="max" fromTaz="TAZ1" toTaz="TAZ2">
        <route edges="01to02 02to03 03to04"/>
    </vehicle>
    <vehicle id="80" type="pass" depart="54366.00" departLane="free" departSpeed="max" fromTaz="TAZ2" toTaz="TAZ1">
        <route edges="04to03 03to08 08to06 06to02 02to01"/>
    </vehicle>
    <vehicle id="31" type="pass" depart="54378.00" departLane="free" departSpeed="max" fromTaz="TAZ1" toTaz="TAZ2">
        <route edges="01to02 02to06 06to08 08to03 03to04"/>
    </vehicle>
    <vehicle id="81" type="pass" depart="54378.00" departLane="free" departSpeed="max" fromTaz="TAZ2" toTaz="TAZ1">
        <route edges="04to03 03to07 07to05 05to02 02to01"/>
    </vehicle>
    <vehicle id="32" type="pass" depart="54390.00" departLane="free" departSpeed="max" fromTaz="TAZ1" toTaz="TAZ2">
        <route edges="01to02 02to05 05to07 07to03 03to04"/>
    </vehicle>
    <vehicle id="82" type="pass" depart="54390.00" departLane="free" departSpeed="max" fromTaz="TAZ2" toTaz="TAZ1">
        <route edges="04to03 03to07 07to05 05to02 02to01"/>
    </vehicle>
    <vehicle id="33" type="pass" depart="54402.00" departLane="free" departSpeed="max" fromTaz="TAZ1" toTaz="TAZ2">
        <route edges="01to02 02to05 05to07 07to03 03to04"/>
    </vehicle>
    <vehicle id="83" type="pass" depart="54402.00" departLane="free" departSpeed="max" fromTaz="TAZ2" toTaz="TAZ1">
        <route edges="04to03 03to02 02to01"/>
    </vehicle>
    <vehicle id="34" type="pass" depart="54414.00" departLane="free" departSpeed="max" fromTaz="TAZ1" toTaz="TAZ2">
        <route edges="01to02 02to03 03to04"/>
    </vehicle>
    <vehicle id="84" type="pass" depart="54414.00" departLane="free" departSpeed="max" fromTaz="TAZ2" toTaz="TAZ1">
        <route edges="04to03 03to02 02to01"/>
    </vehicle>
    <vehicle id="35" type="pass" depart="54426.00" departLane="free" departSpeed="max" fromTaz="TAZ1" toTaz="TAZ2">
        <route edges="01to02 02to03 03to04"/>
    </vehicle>
    <vehicle id="85" type="pass" depart="54426.00" departLane="free" departSpeed="max" fromTaz="TAZ2" toTaz="TAZ1">
        <route edges="04to03 03to02 02to01"/>
    </vehicle>
    <vehicle id="36" type="pass" depart="54438.00" departLane="free" departSpeed="max" fromTaz="TAZ1" toTaz="TAZ2">
        <route edges="01to02 02to03 03to04"/>
    </vehicle>
    <vehicle id="86" type="pass" depart="54438.00" departLane="free" departSpeed="max" fromTaz="TAZ2" toTaz="TAZ1">
        <route edges="04to03 03to07 07to05 05to02 02to01"/>
    </vehicle>
    <vehicle id="37" type="pass" depart="54450.00" departLane="free" departSpeed="max" fromTaz="TAZ1" toTaz="TAZ2">
        <route edges="01to02 02to03 03to04"/>
    </vehicle>
    <vehicle id="87" type="pass" depart="54450.00" departLane="free" departSpeed="max" fromTaz="TAZ2" toTaz="TAZ1">
        <route edges="04to03 03to02 02to01"/>
    </vehicle>
    <vehicle id="38" type="pass" depart="54462.00" departLane="free" departSpeed="max" fromTaz="TAZ1" toTaz="TAZ2">
        <route edges="01to02 02to06 06to08 08to03 03to04"/>
    </vehicle>
    <vehicle id="88" type="pass" depart="54462.00" departLane="free" departSpeed="max" fromTaz="TAZ2" toTaz="TAZ1">
        <route edges="04to03 03to08 08to06 06to02 02to01"/>
    </vehicle>
    <vehicle id="39" type="pass" depart="54474.00" departLane="free" departSpeed="max" fromTaz="TAZ1" toTaz="TAZ2">
        <route edges="01to02 02to05 05to07 07to03 03to04"/>
    </vehicle>
    <vehicle id="89" type="pass" depart="54474.00" departLane="free" departSpeed="max" fromTaz="TAZ2" toTaz="TAZ1">
        <route edges="04to03 03to08 08to06 06to02 02to01"/>
    </vehicle>
    <vehicle id="40" type="pass" depart="54486.00" departLane="free" departSpeed="max" fromTaz="TAZ1" toTaz="TAZ2">
        <route edges="01to02 02to06 06to08 08to03 03to04"/>
    </vehicle>
    <vehicle id="90" type="pass" depart="54486.00" departLane="free" departSpeed="max" fromTaz="TAZ2" toTaz="TAZ1">
        <route edges="04to03 03to07 07to05 05to02 02to01"/>
    </vehicle>
    <vehicle id="41" type="pass" depart="54498.00" departLane="free" departSpeed="max" fromTaz="TAZ1" toTaz="TAZ2">
        <route edges="01to02 02to05 05to07 07to03 03to04"/>
    </vehicle>
    <vehicle id="91" type="pass" depart="54498.00" departLane="free" departSpeed="max" fromTaz="TAZ2" toTaz="TAZ1">
        <route edges="04to03 03to07 07to05 05to02 02to01"/>
    </vehicle>
    <vehicle id="42" type="pass" depart="54510.00" departLane="free" departSpeed="max" fromTaz="TAZ1" toTaz="TAZ2">
        <route edges="01to02 02to03 03to04"/>
    </vehicle>
    <vehicle id="92" type="pass" depart="54510.00" departLane="free" departSpeed="max" fromTaz="TAZ2" toTaz="TAZ1">
        <route edges="04to03 03to02 02to01"/>
    </vehicle>
    <vehicle id="43" type="pass" depart="54522.00" departLane="free" departSpeed="max" fromTaz="TAZ1" toTaz="TAZ2">
        <route edges="01to02 02to05 05to07 07to03 03to04"/>
    </vehicle>
    <vehicle id="93" type="pass" depart="54522.00" departLane="free" departSpeed="max" fromTaz="TAZ2" toTaz="TAZ1">
        <route edges="04to03 03to08 08to06 06to02 02to01"/>
    </vehicle>
    <vehicle id="44" type="pass" depart="54534.00" departLane="free" departSpeed="max" fromTaz="TAZ1" toTaz="TAZ2">
        <route edges="01to02 02to06 06to08 08to03 03to04"/>
    </vehicle>
    <vehicle id="94" type="pass" depart="54534.00" departLane="free" departSpeed="max" fromTaz="TAZ2" toTaz="TAZ1">
        <route edges="04to03 03to02 02to01"/>
    </vehicle>
    <vehicle id="45" type="pass" depart="54546.00" departLane="free" departSpeed="max" fromTaz="TAZ1" toTaz="TAZ2">
        <route edges="01to02 02to06 06to08 08to03 03to04"/>
    </vehicle>
    <vehicle id="95" type="pass" depart="54546.00" departLane="free" departSpeed="max" fromTaz="TAZ2" toTaz="TAZ1">
        <route edges="04to03 03to08 08to06 06to02 02to01"/>
    </vehicle>
    <vehicle id="46" type="pass" depart="54558.00" departLane="free" departSpeed="max" fromTaz="TAZ1" toTaz="TAZ2">
        <route edges="01to02 02to03 03to04"/>
    </vehicle>
    <vehicle id="96" type="pass" depart="54558.00" departLane="free" departSpeed="max" fromTaz="TAZ2" toTaz="TAZ1">
        <route edges="04to03 03to02 02to01"/>
    </vehicle>
    <vehicle id="47" type="pass" depart="54570.00" departLane="free" departSpeed="max" fromTaz="TAZ1" toTaz="TAZ2">
        <route edges="01to02 02to05 05to07 07to03 03to04"/>
    </vehicle>
    <vehicle id="97" type="pass" depart="54570.00" departLane="free" departSpeed="max" fromTaz="TAZ2" toTaz="TAZ1">
        <route edges="04to03 03to07 07to05 05to02 02to01"/>
    </vehicle>
    <vehicle id="48" type="pass" depart="54582.00" departLane="free" departSpeed="max" fromTaz="TAZ1" toTaz="TAZ2">
        <route edges="01to02 02to06 06to08 08to03 03to04"/>
    </vehicle>
    <vehicle id="98" type="pass" depart="54582.00" departLane="free" departSpeed="max" fromTaz="TAZ2" toTaz="TAZ1">
        <route edges="04to03 03to08 08to06 06to02 02to01"/>
    </vehicle>
    <vehicle id="49" type="pass" depart="54594.00" departLane="free" departSpeed="max" fromTaz="TAZ1" toTaz="TAZ2">
        <route edges="01to02 02to05 05to07 07to03 03to04"/>
    </vehicle>
    <vehicle id="99" type="pass" depart="54594.00" departLane="free" departSpeed="max" fromTaz="TAZ2" toTaz="TAZ1">
        <route edges="04to03 03to02 02to01"/>
    </vehicle>
</routes>
